@<TRIPOS>MOLECULE
4NYD.pdb
2476 2670 79 0 0
NUCLEIC_ACID
AMBER ff14SB


@<TRIPOS>ATOM
      1 O5'        36.2660    0.7970   27.8340 O.3       1   G9       -0.6223
      2 C5'        36.5210   -0.5610   27.4850 C.3       1   G9        0.0558
      3 C4'        35.6130   -1.5350   28.1940 C.3       1   G9        0.1065
      4 O4'        35.5780   -1.2280   29.6130 O.3       1   G9       -0.3548
      5 C3'        34.1480   -1.5090   27.7930 C.3       1   G9        0.2022
      6 O3'        33.9370   -2.2920   26.6330 O.3       1   G9       -0.5246
      7 C2'        33.5070   -2.1840   28.9900 C.3       1   G9        0.0670
      8 O2'        33.7550   -3.5750   28.9550 O.3       1   G9       -0.6139
      9 C1'        34.3000   -1.5570   30.1350 C.3       1   G9        0.0191
     10 N9         33.6980   -0.3390   30.6730 N.ar      1   G9        0.0492
     11 C8         34.0800    0.9610   30.4300 C.ar      1   G9        0.1374
     12 N7         33.3790    1.8360   31.0980 N.ar      1   G9       -0.5709
     13 C5         32.4740    1.0670   31.8160 C.ar      1   G9        0.1744
     14 C6         31.4560    1.4550   32.7230 C.2       1   G9        0.4770
     15 O6         31.1410    2.5960   33.0930 O.2       1   G9       -0.5597
     16 N1         30.7670    0.3550   33.2140 N.am      1   G9       -0.4787
     17 C2         31.0220   -0.9540   32.8750 C.2       1   G9        0.7657
     18 N2         30.2380   -1.8830   33.4510 N.pl3     1   G9       -0.9672
     19 N3         31.9700   -1.3260   32.0350 N.2       1   G9       -0.6323
     20 C4         32.6500   -0.2750   31.5490 C.ar      1   G9        0.1222
     21 H5'        36.3802   -0.6751   26.4102 H         1   G9        0.0679
     22 H5''       37.5554   -0.7999   27.7321 H         1   G9        0.0679
     23 H4'        36.0004   -2.5448   28.0586 H         1   G9        0.1174
     24 H3'        33.7841   -0.4898   27.6627 H         1   G9        0.0615
     25 H2'        32.4424   -1.9615   29.0617 H         1   G9        0.0972
     26 H1'        34.4147   -2.2869   30.9363 H         1   G9        0.2006
     27 H8         34.8790    1.2297   29.7548 H         1   G9        0.1640
     28 H1         30.0202    0.5288   33.8714 H         1   G9        0.3424
     29 H21        29.5111   -1.6023   34.0936 H         1   G9        0.4364
     30 H22        30.3763   -2.8612   33.2409 H         1   G9        0.4364
     31 HO2'       32.9644   -4.0483   29.2244 H         1   G9        0.4186
     32 HO5'       36.7128    1.3768   27.2129 H         1   G9        0.4295
     33 P          32.7690   -1.9010   25.6090 P.3       2   C10       1.1662
     34 OP1        32.9530   -2.7370   24.4060 O.co2     2   C10      -0.7760
     35 OP2        32.7350   -0.4190   25.4740 O.co2     2   C10      -0.7760
     36 O5'        31.4530   -2.4190   26.3470 O.3       2   C10      -0.4989
     37 C5'        31.2740   -3.8010   26.6570 C.3       2   C10       0.0558
     38 C4'        30.1630   -3.9880   27.6790 C.3       2   C10       0.1065
     39 O4'        30.5240   -3.2990   28.9090 O.3       2   C10      -0.3548
     40 C3'        28.7940   -3.4080   27.3520 C.3       2   C10       0.2022
     41 O3'        28.0360   -4.2360   26.4790 O.3       2   C10      -0.5246
     42 C2'        28.1600   -3.3230   28.7340 C.3       2   C10       0.0670
     43 O2'        27.7370   -4.5750   29.2190 O.3       2   C10      -0.6139
     44 C1'        29.3480   -2.8630   29.5770 C.3       2   C10       0.0066
     45 N1         29.3920   -1.3990   29.7280 N.am      2   C10      -0.0484
     46 C2         28.5230   -0.8020   30.6420 C.2       2   C10       0.7538
     47 O2         27.7710   -1.5230   31.3110 O.2       2   C10      -0.6252
     48 N3         28.5210    0.5430   30.7730 N.2       2   C10      -0.7584
     49 C4         29.3440    1.2860   30.0360 C.2       2   C10       0.8185
     50 N4         29.2960    2.6020   30.2000 N.pl3     2   C10      -0.9530
     51 C5         30.2490    0.7080   29.1030 C.2       2   C10      -0.5215
     52 C6         30.2430   -0.6280   28.9850 C.2       2   C10       0.0053
     53 H5'        32.2037   -4.1988   27.0638 H         2   C10       0.0679
     54 H5''       31.0193   -4.3433   25.7464 H         2   C10       0.0679
     55 H4'        30.0537   -5.0518   27.8900 H         2   C10       0.1174
     56 H3'        28.9006   -2.4106   26.9255 H         2   C10       0.0615
     57 H2'        27.3503   -2.5936   28.7561 H         2   C10       0.0972
     58 H1'        29.2962   -3.3280   30.5615 H         2   C10       0.2029
     59 H5         30.9145    1.3207   28.5130 H         2   C10       0.1928
     60 H6         30.9214   -1.1029   28.2917 H         2   C10       0.1958
     61 H41        29.9044    3.2007   29.6601 H         2   C10       0.4234
     62 H42        28.6510    3.0049   30.8647 H         2   C10       0.4234
     63 HO2'       26.9892   -4.8830   28.7017 H         2   C10       0.4186
     64 P          27.0460   -3.5570   25.4050 P.3       3   G11       1.1662
     65 OP1        26.5340   -4.6070   24.4970 O.co2     3   G11      -0.7760
     66 OP2        27.7430   -2.3780   24.8260 O.co2     3   G11      -0.7760
     67 O5'        25.8290   -3.0520   26.2990 O.3       3   G11      -0.4989
     68 C5'        25.0020   -3.9820   26.9800 C.3       3   G11       0.0558
     69 C4'        24.0690   -3.2680   27.9330 C.3       3   G11       0.1065
     70 O4'        24.8450   -2.5630   28.9350 O.3       3   G11      -0.3548
     71 C3'        23.1630   -2.1950   27.3500 C.3       3   G11       0.2022
     72 O3'        21.9870   -2.7700   26.8060 O.3       3   G11      -0.5246
     73 C2'        22.8100   -1.3770   28.5830 C.3       3   G11       0.0670
     74 O2'        21.7660   -1.9470   29.3280 O.3       3   G11      -0.6139
     75 C1'        24.1140   -1.4360   29.3820 C.3       3   G11       0.0191
     76 N9         24.9190   -0.2460   29.1560 N.ar      3   G11       0.0492
     77 C8         26.0210   -0.1250   28.3520 C.ar      3   G11       0.1374
     78 N7         26.5060    1.0810   28.3350 N.ar      3   G11      -0.5709
     79 C5         25.6740    1.7930   29.1850 C.ar      3   G11       0.1744
     80 C6         25.7010    3.1460   29.5620 C.2       3   G11       0.4770
     81 O6         26.4840    4.0180   29.2160 O.2       3   G11      -0.5597
     82 N1         24.6800    3.4530   30.4420 N.am      3   G11      -0.4787
     83 C2         23.7490    2.5670   30.9050 C.2       3   G11       0.7657
     84 N2         22.8490    3.0600   31.7700 N.pl3     3   G11      -0.9672
     85 N3         23.7060    1.2970   30.5540 N.2       3   G11      -0.6323
     86 C4         24.6950    0.9840   29.6990 C.ar      3   G11       0.1222
     87 H5'        24.4124   -4.5376   26.2508 H         3   G11       0.0679
     88 H5''       25.6275   -4.6762   27.5412 H         3   G11       0.0679
     89 H4'        23.4489   -4.0114   28.4339 H         3   G11       0.1174
     90 H3'        23.6883   -1.5911   26.6101 H         3   G11       0.0615
     91 H2'        22.5718   -0.3493   28.3089 H         3   G11       0.0972
     92 H1'        23.8925   -1.5364   30.4445 H         3   G11       0.2006
     93 H8         26.4430   -0.9456   27.7908 H         3   G11       0.1640
     94 H1         24.6175    4.4069   30.7681 H         3   G11       0.3424
     95 H21        22.8867    4.0330   32.0382 H         3   G11       0.4364
     96 H22        22.1341    2.4580   32.1528 H         3   G11       0.4364
     97 HO2'       20.9924   -1.3805   29.2811 H         3   G11       0.4186
     98 P          21.1340   -1.9660   25.7020 P.3       4   A12       1.1662
     99 OP1        20.1580   -2.9470   25.1520 O.co2     4   A12      -0.7760
    100 OP2        22.0780   -1.2770   24.7790 O.co2     4   A12      -0.7760
    101 O5'        20.3300   -0.8670   26.5380 O.3       4   A12      -0.4989
    102 C5'        19.3220   -1.2630   27.4670 C.3       4   A12       0.0558
    103 C4'        18.9010   -0.0980   28.3280 C.3       4   A12       0.1065
    104 O4'        20.0600    0.4190   29.0330 O.3       4   A12      -0.3548
    105 C3'        18.3520    1.1080   27.5920 C.3       4   A12       0.2022
    106 O3'        16.9770    0.9220   27.2990 O.3       4   A12      -0.5246
    107 C2'        18.5880    2.2270   28.6020 C.3       4   A12       0.0670
    108 O2'        17.6450    2.2720   29.6550 O.3       4   A12      -0.6139
    109 C1'        19.9450    1.8250   29.1770 C.3       4   A12       0.0394
    110 N9         21.0900    2.4520   28.5110 N.ar      4   A12      -0.0251
    111 C8         21.9650    1.8760   27.6260 C.ar      4   A12       0.2006
    112 N7         22.9220    2.6760   27.2350 N.ar      4   A12      -0.6073
    113 C5         22.6550    3.8650   27.8970 C.ar      4   A12       0.0515
    114 C6         23.3110    5.1080   27.9100 C.ar      4   A12       0.7009
    115 N6         24.4160    5.3600   27.2130 N.pl3     4   A12      -0.9019
    116 N1         22.7860    6.0940   28.6750 N.ar      4   A12      -0.7615
    117 C2         21.6760    5.8340   29.3760 C.ar      4   A12       0.5875
    118 N3         20.9690    4.7050   29.4480 N.ar      4   A12      -0.6997
    119 C4         21.5210    3.7470   28.6760 C.ar      4   A12       0.3053
    120 H5'        18.4560   -1.6333   26.9184 H         4   A12       0.0679
    121 H5''       19.7115   -2.0579   28.1030 H         4   A12       0.0679
    122 H4'        18.1637   -0.4390   29.0547 H         4   A12       0.1174
    123 H3'        18.9178    1.2902   26.6783 H         4   A12       0.0615
    124 H2'        18.6523    3.1925   28.1002 H         4   A12       0.0972
    125 H1'        19.9698    2.0764   30.2373 H         4   A12       0.2007
    126 H8         21.8720    0.8559   27.2838 H         4   A12       0.1553
    127 H2         21.2989    6.6551   29.9676 H         4   A12       0.0473
    128 HO2'       17.1001    3.0571   29.5638 H         4   A12       0.4186
    129 H61        24.5965    6.3010   27.5325 H         4   A12       0.4115
    130 H62        24.9236    4.7819   26.5586 H         4   A12       0.4115
    131 P          16.3150    1.6740   26.0450 P.3       5   C13       1.1662
    132 OP1        14.9570    1.0980   25.9420 O.co2     5   C13      -0.7760
    133 OP2        17.2040    1.6500   24.8590 O.co2     5   C13      -0.7760
    134 O5'        16.1660    3.1730   26.5420 O.3       5   C13      -0.4989
    135 C5'        15.2830    3.4800   27.6030 C.3       5   C13       0.0558
    136 C4'        15.4750    4.9050   28.0350 C.3       5   C13       0.1065
    137 O4'        16.8300    5.0750   28.5370 O.3       5   C13      -0.3548
    138 C3'        15.3500    5.9460   26.9350 C.3       5   C13       0.2022
    139 O3'        13.9700    6.2550   26.7020 O.3       5   C13      -0.5246
    140 C2'        16.1340    7.1050   27.5440 C.3       5   C13       0.0670
    141 O2'        15.4030    7.7510   28.5660 O.3       5   C13      -0.6139
    142 C1'        17.3070    6.3660   28.1970 C.3       5   C13       0.0066
    143 N1         18.4950    6.2140   27.3320 N.am      5   C13      -0.0484
    144 C2         19.3600    7.2980   27.1850 C.2       5   C13       0.7538
    145 O2         19.0940    8.3460   27.7710 O.2       5   C13      -0.6252
    146 N3         20.4620    7.1770   26.4060 N.2       5   C13      -0.7584
    147 C4         20.7110    6.0240   25.7820 C.2       5   C13       0.8185
    148 N4         21.8120    5.9450   25.0250 N.pl3     5   C13      -0.9530
    149 C5         19.8410    4.8980   25.9060 C.2       5   C13      -0.5215
    150 C6         18.7540    5.0360   26.6850 C.2       5   C13       0.0053
    151 H5'        14.2550    3.3396   27.2690 H         5   C13       0.0679
    152 H5''       15.4838    2.8167   28.4443 H         5   C13       0.0679
    153 H4'        14.7665    5.1370   28.8302 H         5   C13       0.1174
    154 H3'        15.8268    5.5976   26.0188 H         5   C13       0.0615
    155 H2'        16.4725    7.8081   26.7830 H         5   C13       0.0972
    156 H1'        17.5950    6.8903   29.1082 H         5   C13       0.2029
    157 H5         20.0486    3.9705   25.3932 H         5   C13       0.1928
    158 H6         18.0747    4.2046   26.8021 H         5   C13       0.1958
    159 H41        22.4247    6.7434   24.9398 H         5   C13       0.4234
    160 H42        22.0302    5.0869   24.5389 H         5   C13       0.4234
    161 HO2'       15.1415    8.6257   28.2691 H         5   C13       0.4186
    162 P          13.4670    6.7050   25.2310 P.3       6   U14       1.1662
    163 OP1        12.0000    6.8630   25.3610 O.co2     6   U14      -0.7760
    164 OP2        14.0150    5.8320   24.1550 O.co2     6   U14      -0.7760
    165 O5'        14.0730    8.1630   25.0530 O.3       6   U14      -0.4989
    166 C5'        13.6490    9.2180   25.9020 C.3       6   U14       0.0558
    167 C4'        14.5640   10.4030   25.7540 C.3       6   U14       0.1065
    168 O4'        15.8980   10.0510   26.2180 O.3       6   U14      -0.3548
    169 C3'        14.8020   10.8640   24.3290 C.3       6   U14       0.2022
    170 O3'        13.7150   11.6440   23.8410 O.3       6   U14      -0.5246
    171 C2'        16.0970   11.6510   24.4830 C.3       6   U14       0.0670
    172 O2'        15.8830   12.9250   25.0590 O.3       6   U14      -0.6139
    173 C1'        16.8680   10.7590   25.4630 C.3       6   U14       0.0674
    174 N1         17.7200    9.7760   24.7800 N.am      6   U14       0.0418
    175 C2         18.9620   10.1950   24.3320 C.2       6   U14       0.4687
    176 O2         19.3790   11.3270   24.4980 O.2       6   U14      -0.5477
    177 N3         19.6960    9.2370   23.6780 N.am      6   U14      -0.3549
    178 C4         19.3230    7.9310   23.4320 C.2       6   U14       0.5952
    179 O4         20.0900    7.1920   22.8160 O.2       6   U14      -0.5761
    180 C5         18.0300    7.5700   23.9340 C.2       6   U14      -0.3635
    181 C6         17.2930    8.4810   24.5780 C.2       6   U14      -0.1126
    182 H5'        12.6342    9.5109   25.6329 H         6   U14       0.0679
    183 H5''       13.6641    8.8770   26.9372 H         6   U14       0.0679
    184 H4'        14.1808   11.2343   26.3458 H         6   U14       0.1174
    185 H3'        14.9638   10.0029   23.6806 H         6   U14       0.0615
    186 H2'        16.6217   11.7336   23.5312 H         6   U14       0.0972
    187 H1'        17.4742   11.3762   26.1261 H         6   U14       0.1824
    188 H3         20.6058    9.5176   23.3409 H         6   U14       0.3154
    189 H5         17.6531    6.5678   23.7929 H         6   U14       0.1811
    190 H6         16.3237    8.1904   24.9553 H         6   U14       0.2188
    191 HO2'       16.3276   13.5935   24.5326 H         6   U14       0.4186
    192 P          13.1890   11.4180   22.3360 P.3       7   C15       1.1662
    193 OP1        11.8290   12.0070   22.2410 O.co2     7   C15      -0.7760
    194 OP2        13.4050   10.0040   21.9300 O.co2     7   C15      -0.7760
    195 O5'        14.1590   12.3330   21.4790 O.3       7   C15      -0.4989
    196 C5'        14.4300   13.6610   21.8890 C.3       7   C15       0.0558
    197 C4'        15.7780   14.0830   21.3780 C.3       7   C15       0.1065
    198 O4'        16.8220   13.3150   22.0360 O.3       7   C15      -0.3548
    199 C3'        16.0310   13.7950   19.9110 C.3       7   C15       0.2022
    200 O3'        15.4090   14.7530   19.0740 O.3       7   C15      -0.5246
    201 C2'        17.5470   13.8790   19.8520 C.3       7   C15       0.0670
    202 O2'        18.0030   15.2170   19.8470 O.3       7   C15      -0.6139
    203 C1'        17.9280   13.1750   21.1570 C.3       7   C15       0.0066
    204 N1         18.1550   11.7480   20.9140 N.am      7   C15      -0.0484
    205 C2         19.4270   11.3370   20.5390 C.2       7   C15       0.7538
    206 O2         20.3300   12.1780   20.4990 O.2       7   C15      -0.6252
    207 N3         19.6460   10.0410   20.2300 N.2       7   C15      -0.7584
    208 C4         18.6430    9.1670   20.2950 C.2       7   C15       0.8185
    209 N4         18.8950    7.9030   19.9530 N.pl3     7   C15      -0.9530
    210 C5         17.3350    9.5520   20.7090 C.2       7   C15      -0.5215
    211 C6         17.1390   10.8420   21.0130 C.2       7   C15       0.0053
    212 H5'        13.6659   14.3270   21.4882 H         7   C15       0.0679
    213 H5''       14.4220   13.7133   22.9777 H         7   C15       0.0679
    214 H4'        15.9270   15.1450   21.5732 H         7   C15       0.1174
    215 H3'        15.6945   12.7901   19.6561 H         7   C15       0.0615
    216 H2'        17.9327   13.3343   18.9902 H         7   C15       0.0972
    217 H1'        18.8175   13.6328   21.5898 H         7   C15       0.2029
    218 H5         16.5328    8.8319   20.7751 H         7   C15       0.1928
    219 H6         16.1635   11.1695   21.3409 H         7   C15       0.1958
    220 H41        19.8232    7.6350   19.6584 H         7   C15       0.4234
    221 H42        18.1577    7.2136   19.9885 H         7   C15       0.4234
    222 HO2'       18.1698   15.4953   18.9435 H         7   C15       0.4186
    223 P          15.4590   14.5630   17.4810 P.3       8   G16       1.1662
    224 OP1        14.6720   15.7060   16.9370 O.co2     8   G16      -0.7760
    225 OP2        15.0950   13.1640   17.0960 O.co2     8   G16      -0.7760
    226 O5'        16.9990   14.8020   17.1360 O.3       8   G16      -0.4989
    227 C5'        17.5300   14.3550   15.9050 C.3       8   G16       0.0558
    228 C4'        19.0190   14.1630   16.0020 C.3       8   G16       0.1065
    229 O4'        19.3570   13.3330   17.1450 O.3       8   G16      -0.3548
    230 C3'        19.5480   13.3910   14.8130 C.3       8   G16       0.2022
    231 O3'        19.7940   14.2740   13.7460 O.3       8   G16      -0.5246
    232 C2'        20.7970   12.7370   15.3690 C.3       8   G16       0.0670
    233 O2'        21.8650   13.6490   15.4550 O.3       8   G16      -0.6139
    234 C1'        20.3140   12.3560   16.7650 C.3       8   G16       0.0191
    235 N9         19.6370   11.0660   16.7890 N.ar      8   G16       0.0492
    236 C8         18.3720   10.8260   17.2610 C.ar      8   G16       0.1374
    237 N7         18.0230    9.5720   17.1790 N.ar      8   G16      -0.5709
    238 C5         19.1230    8.9460   16.6180 C.ar      8   G16       0.1744
    239 C6         19.3260    7.5930   16.3000 C.2       8   G16       0.4770
    240 O6         18.5580    6.6440   16.4700 O.2       8   G16      -0.5597
    241 N1         20.5750    7.3850   15.7310 N.am      8   G16      -0.4787
    242 C2         21.5110    8.3650   15.5050 C.2       8   G16       0.7657
    243 N2         22.6630    7.9710   14.9330 N.pl3     8   G16      -0.9672
    244 N3         21.3330    9.6400   15.8120 N.2       8   G16      -0.6323
    245 C4         20.1260    9.8570   16.3620 C.ar      8   G16       0.1222
    246 H5'        17.0643   13.4061   15.6389 H         8   G16       0.0679
    247 H5''       17.3124   15.0914   15.1314 H         8   G16       0.0679
    248 H4'        19.5191   15.1286   16.0768 H         8   G16       0.1174
    249 H3'        18.8291   12.6294   14.5109 H         8   G16       0.0615
    250 H2'        21.0739   11.8554   14.7909 H         8   G16       0.0972
    251 H1'        21.1495   12.3555   17.4651 H         8   G16       0.2006
    252 H8         17.7299   11.5972   17.6602 H         8   G16       0.1640
    253 H1         20.8139    6.4411   15.4626 H         8   G16       0.3424
    254 H21        22.8025    6.9992   14.6957 H         8   G16       0.4364
    255 H22        23.3885    8.6469   14.7408 H         8   G16       0.4364
    256 HO2'       21.8590   14.2224   14.6851 H         8   G16       0.4186
    257 P          19.0930   14.0040   12.3320 P.3       9   G17       1.1662
    258 OP1        19.0000   15.3260   11.6470 O.co2     9   G17      -0.7760
    259 OP2        17.8620   13.1910   12.5430 O.co2     9   G17      -0.7760
    260 O5'        20.1580   13.0970   11.5800 O.3       9   G17      -0.4989
    261 C5'        21.5340   13.3790   11.7100 C.3       9   G17       0.0558
    262 C4'        22.3400   12.1940   11.2810 C.3       9   G17       0.1065
    263 O4'        22.3500   11.1590   12.3020 O.3       9   G17      -0.3548
    264 C3'        21.7730   11.4770   10.0860 C.3       9   G17       0.2022
    265 O3'        22.0310   12.2190    8.9070 O.3       9   G17      -0.5246
    266 C2'        22.5150   10.1490   10.1740 C.3       9   G17       0.0670
    267 O2'        23.8710   10.2930    9.8020 O.3       9   G17      -0.6139
    268 C1'        22.4600    9.8850   11.6790 C.3       9   G17       0.0191
    269 N9         21.3210    9.0730   12.0960 N.ar      9   G17       0.0492
    270 C8         20.2040    9.5100   12.7620 C.ar      9   G17       0.1374
    271 N7         19.3420    8.5580   13.0020 N.ar      9   G17      -0.5709
    272 C5         19.9270    7.4220   12.4650 C.ar      9   G17       0.1744
    273 C6         19.4590    6.0890   12.4180 C.2       9   G17       0.4770
    274 O6         18.4100    5.6250   12.8620 O.2       9   G17      -0.5597
    275 N1         20.3560    5.2580   11.7720 N.am      9   G17      -0.4787
    276 C2         21.5500    5.6520   11.2400 C.2       9   G17       0.7657
    277 N2         22.2570    4.6930   10.6510 N.pl3     9   G17      -0.9672
    278 N3         22.0110    6.8910   11.2810 N.2       9   G17      -0.6323
    279 C4         21.1510    7.7210   11.9020 C.ar      9   G17       0.1222
    280 H5'        21.7881   14.2344   11.0840 H         9   G17       0.0679
    281 H5''       21.7590   13.6124   12.7507 H         9   G17       0.0679
    282 H4'        23.3624   12.5061   11.0679 H         9   G17       0.1174
    283 H3'        20.7012   11.3218   10.2098 H         9   G17       0.0615
    284 H2'        22.0168    9.3649    9.6039 H         9   G17       0.0972
    285 H1'        23.3848    9.4038   11.9973 H         9   G17       0.2006
    286 H8         20.0525   10.5375   13.0581 H         9   G17       0.1640
    287 H1         20.1082    4.2826   11.6871 H         9   G17       0.3424
    288 H21        21.9004    3.7485   10.6212 H         9   G17       0.4364
    289 H22        23.1509    4.9087   10.2332 H         9   G17       0.4364
    290 HO2'       24.2763    9.4261    9.7262 H         9   G17       0.4186
    291 P          21.2010   11.8910    7.5740 P.3      10   G18       1.1662
    292 OP1        21.5130   12.9310    6.5580 O.co2    10   G18      -0.7760
    293 OP2        19.7850   11.6110    7.9270 O.co2    10   G18      -0.7760
    294 O5'        21.8740   10.5360    7.1090 O.3      10   G18      -0.4989
    295 C5'        21.1750    9.6370    6.2880 C.3      10   G18       0.0558
    296 C4'        21.7870    8.2730    6.3860 C.3      10   G18       0.1065
    297 O4'        21.6950    7.8020    7.7500 O.3      10   G18      -0.3548
    298 C3'        21.0250    7.2590    5.5670 C.3      10   G18       0.2022
    299 O3'        21.5480    7.2730    4.2530 O.3      10   G18      -0.5246
    300 C2'        21.3100    5.9610    6.2990 C.3      10   G18       0.0670
    301 O2'        22.5600    5.4120    5.9330 O.3      10   G18      -0.6139
    302 C1'        21.3400    6.4370    7.7530 C.3      10   G18       0.0191
    303 N9         20.0630    6.3070    8.4400 N.ar     10   G18       0.0492
    304 C8         19.2700    7.3160    8.9220 C.ar     10   G18       0.1374
    305 N7         18.2110    6.8780    9.5480 N.ar     10   G18      -0.5709
    306 C5         18.3090    5.4970    9.4590 C.ar     10   G18       0.1744
    307 C6         17.4550    4.4790    9.9570 C.2      10   G18       0.4770
    308 O6         16.4120    4.6050   10.6090 O.2      10   G18      -0.5597
    309 N1         17.9260    3.2080    9.6260 N.am     10   G18      -0.4787
    310 C2         19.0740    2.9570    8.9110 C.2      10   G18       0.7657
    311 N2         19.3780    1.6720    8.6770 N.pl3    10   G18      -0.9672
    312 N3         19.8740    3.8970    8.4520 N.2      10   G18      -0.6323
    313 C4         19.4370    5.1330    8.7620 C.ar     10   G18       0.1222
    314 H5'        20.1343    9.5896    6.6086 H        10   G18       0.0679
    315 H5''       21.2201    9.9805    5.2545 H        10   G18       0.0679
    316 H4'        22.8294    8.3052    6.0691 H        10   G18       0.1174
    317 H3'        19.9577    7.4805    5.5652 H        10   G18       0.0615
    318 H2'        20.5072    5.2407    6.1415 H        10   G18       0.0972
    319 H1'        22.0971    5.8727    8.2975 H        10   G18       0.2006
    320 H8         19.4975    8.3643    8.7970 H        10   G18       0.1640
    321 H1         17.3839    2.4135    9.9342 H        10   G18       0.3424
    322 H21        18.7743    0.9394    9.0219 H        10   G18       0.4364
    323 H22        20.2106    1.4368    8.1559 H        10   G18       0.4364
    324 HO2'       23.1428    5.4066    6.6958 H        10   G18       0.4186
    325 P          20.5720    7.5720    3.0170 P.3      11   G19       1.1662
    326 OP1        21.3640    8.4270    2.0900 O.co2    11   G19      -0.7760
    327 OP2        19.2500    8.0450    3.5270 O.co2    11   G19      -0.7760
    328 O5'        20.3300    6.1380    2.3680 O.3      11   G19      -0.4989
    329 C5'        21.4170    5.2710    2.0950 C.3      11   G19       0.0558
    330 C4'        20.9710    3.8360    2.1840 C.3      11   G19       0.1065
    331 O4'        20.7190    3.4580    3.5640 O.3      11   G19      -0.3548
    332 C3'        19.6760    3.5180    1.4660 C.3      11   G19       0.2022
    333 O3'        19.9500    3.2960    0.0890 O.3      11   G19      -0.5246
    334 C2'        19.2520    2.2300    2.1630 C.3      11   G19       0.0670
    335 O2'        19.9840    1.1230    1.6770 O.3      11   G19      -0.6139
    336 C1'        19.6760    2.5040    3.6070 C.3      11   G19       0.0191
    337 N9         18.6190    3.0360    4.4550 N.ar     11   G19       0.0492
    338 C8         18.2320    4.3460    4.5710 C.ar     11   G19       0.1374
    339 N7         17.2880    4.5250    5.4550 N.ar     11   G19      -0.5709
    340 C5         17.0330    3.2540    5.9410 C.ar     11   G19       0.1744
    341 C6         16.1230    2.8210    6.9260 C.2      11   G19       0.4770
    342 O6         15.3380    3.4950    7.5940 O.2      11   G19      -0.5597
    343 N1         16.1840    1.4470    7.1110 N.am     11   G19      -0.4787
    344 C2         17.0220    0.6010    6.4400 C.2      11   G19       0.7657
    345 N2         16.9290   -0.6970    6.7610 N.pl3    11   G19      -0.9672
    346 N3         17.8860    0.9930    5.5230 N.2      11   G19      -0.6323
    347 C4         17.8370    2.3230    5.3240 C.ar     11   G19       0.1222
    348 H5'        22.2098    5.4475    2.8220 H        11   G19       0.0679
    349 H5''       21.7952    5.4703    1.0923 H        11   G19       0.0679
    350 H4'        21.7594    3.1983    1.7841 H        11   G19       0.1174
    351 H3'        18.9382    4.3084    1.6041 H        11   G19       0.0615
    352 H2'        18.1772    2.0662    2.0845 H        11   G19       0.0972
    353 H1'        20.0552    1.5819    4.0475 H        11   G19       0.2006
    354 H8         18.6638    5.1479    3.9906 H        11   G19       0.1640
    355 H1         15.5610    1.0407    7.7943 H        11   G19       0.3424
    356 H21        16.2676   -0.9976    7.4626 H        11   G19       0.4364
    357 H22        17.5204   -1.3745    6.3013 H        11   G19       0.4364
    358 HO2'       19.7260    0.9414    0.7703 H        11   G19       0.4186
    359 P          18.8940    3.7620   -1.0350 P.3      12   U20       1.1662
    360 OP1        19.4580    3.2870   -2.3210 O.co2    12   U20      -0.7760
    361 OP2        18.5710    5.2050   -0.8670 O.co2    12   U20      -0.7760
    362 O5'        17.5840    2.9020   -0.7260 O.3      12   U20      -0.4989
    363 C5'        17.5060    1.5120   -1.0640 C.3      12   U20       0.0558
    364 C4'        16.2420    0.9110   -0.4980 C.3      12   U20       0.1065
    365 O4'        16.2050    1.2260    0.9010 O.3      12   U20      -0.3548
    366 C3'        14.9270    1.4680   -1.0320 C.3      12   U20       0.2022
    367 O3'        14.4640    0.6260   -2.0810 O.3      12   U20      -0.5246
    368 C2'        13.9510    1.2960    0.1320 C.3      12   U20       0.0670
    369 O2'        13.1720    0.1270    0.0590 O.3      12   U20      -0.6139
    370 C1'        14.8750    1.1720    1.3390 C.3      12   U20       0.0674
    371 N1         14.6570    2.1620    2.3930 N.am     12   U20       0.0418
    372 C2         14.1420    1.6740    3.5600 C.2      12   U20       0.4687
    373 O2         13.9240    0.4880    3.7220 O.2      12   U20      -0.5477
    374 N3         13.8990    2.6100    4.5310 N.am     12   U20      -0.3549
    375 C4         14.1300    3.9600    4.4510 C.2      12   U20       0.5952
    376 O4         13.8660    4.6730    5.4200 O.2      12   U20      -0.5761
    377 C5         14.6880    4.3980    3.2000 C.2      12   U20      -0.3635
    378 C6         14.9270    3.5010    2.2340 C.2      12   U20      -0.1126
    379 H5'        18.3695    0.9914   -0.6500 H        12   U20       0.0679
    380 H5''       17.5040    1.4032   -2.1486 H        12   U20       0.0679
    381 H4'        16.2610   -0.1709   -0.6289 H        12   U20       0.1174
    382 H3'        15.0162    2.5080   -1.3460 H        12   U20       0.0615
    383 H2'        13.3130    2.1745    0.2283 H        12   U20       0.0972
    384 H1'        14.7133    0.1866    1.7760 H        12   U20       0.1824
    385 H3         13.5082    2.2697    5.3979 H        12   U20       0.3154
    386 H5         14.9127    5.4422    3.0404 H        12   U20       0.1811
    387 H6         15.3460    3.8411    1.2985 H        12   U20       0.2188
    388 HO2'       12.3506    0.3180   -0.3997 H        12   U20       0.4186
    389 P          14.2400    1.2090   -3.5610 P.3      13   G21       1.1662
    390 OP1        13.9570    2.6620   -3.5010 O.co2    13   G21      -0.7760
    391 OP2        13.2550    0.2980   -4.2040 O.co2    13   G21      -0.7760
    392 O5'        15.6650    1.0240   -4.2550 O.3      13   G21      -0.4989
    393 C5'        15.7900    0.2500   -5.4330 C.3      13   G21       0.0558
    394 C4'        17.0130   -0.6270   -5.3740 C.3      13   G21       0.1065
    395 O4'        17.1500   -1.2540   -4.0680 O.3      13   G21      -0.3548
    396 C3'        16.9010   -1.7850   -6.3400 C.3      13   G21       0.2022
    397 O3'        17.2550   -1.3630   -7.6390 O.3      13   G21      -0.5246
    398 C2'        17.7910   -2.8550   -5.7140 C.3      13   G21       0.0670
    399 O2'        19.1640   -2.7320   -6.0090 O.3      13   G21      -0.6139
    400 C1'        17.5550   -2.6080   -4.2220 C.3      13   G21       0.0191
    401 N9         16.5050   -3.4500   -3.6670 N.ar     13   G21       0.0492
    402 C8         15.3620   -3.0270   -3.0390 C.ar     13   G21       0.1374
    403 N7         14.6060   -4.0100   -2.6350 N.ar     13   G21      -0.5709
    404 C5         15.2940   -5.1500   -3.0220 C.ar     13   G21       0.1744
    405 C6         14.9730   -6.5130   -2.8500 C.2      13   G21       0.4770
    406 O6         13.9850   -7.0090   -2.3060 O.2      13   G21      -0.5597
    407 N1         15.9480   -7.3370   -3.3920 N.am     13   G21      -0.4787
    408 C2         17.0840   -6.9060   -4.0170 C.2      13   G21       0.7657
    409 N2         17.8980   -7.8570   -4.4680 N.pl3    13   G21      -0.9672
    410 N3         17.3970   -5.6370   -4.1870 N.2      13   G21      -0.6323
    411 C4         16.4660   -4.8190   -3.6650 C.ar     13   G21       0.1222
    412 H5'        14.9059   -0.3780   -5.5424 H        13   G21       0.0679
    413 H5''       15.8665    0.9152   -6.2931 H        13   G21       0.0679
    414 H4'        17.9030   -0.0395   -5.5995 H        13   G21       0.1174
    415 H3'        15.8708   -2.1409   -6.3503 H        13   G21       0.0615
    416 H2'        17.4354   -3.8475   -5.9907 H        13   G21       0.0972
    417 H1'        18.4826   -2.7748   -3.6744 H        13   G21       0.2006
    418 H8         15.1131   -1.9862   -2.8937 H        13   G21       0.1640
    419 H1         15.8072   -8.3345   -3.3190 H        13   G21       0.3424
    420 H21        17.6589   -8.8297   -4.3384 H        13   G21       0.4364
    421 H22        18.7550   -7.6062   -4.9399 H        13   G21       0.4364
    422 HO2'       19.3058   -2.8879   -6.9456 H        13   G21       0.4186
    423 P          16.2220   -1.5950   -8.8350 P.3      14   C22       1.1662
    424 OP1        16.6590   -0.7620   -9.9770 O.co2    14   C22      -0.7760
    425 OP2        14.8630   -1.4210   -8.2750 O.co2    14   C22      -0.7760
    426 O5'        16.4340   -3.1320   -9.2000 O.3      14   C22      -0.4989
    427 C5'        17.7560   -3.6730   -9.3490 C.3      14   C22       0.0558
    428 C4'        17.7270   -5.1870   -9.2940 C.3      14   C22       0.1065
    429 O4'        17.5420   -5.6620   -7.9330 O.3      14   C22      -0.3548
    430 C3'        16.5820   -5.8220  -10.0490 C.3      14   C22       0.2022
    431 O3'        16.8690   -5.8630  -11.4290 O.3      14   C22      -0.5246
    432 C2'        16.5060   -7.2010   -9.4120 C.3      14   C22       0.0670
    433 O2'        17.5110   -8.0660   -9.8970 O.3      14   C22      -0.6139
    434 C1'        16.7750   -6.8580   -7.9470 C.3      14   C22       0.0066
    435 N1         15.5460   -6.6240   -7.1710 N.am     14   C22      -0.0484
    436 C2         14.8610   -7.7240   -6.6380 C.2      14   C22       0.7538
    437 O2         15.2980   -8.8560   -6.8540 O.2      14   C22      -0.6252
    438 N3         13.7390   -7.5170   -5.9050 N.2      14   C22      -0.7584
    439 C4         13.2940   -6.2680   -5.7060 C.2      14   C22       0.8185
    440 N4         12.1890   -6.1010   -4.9750 N.pl3    14   C22      -0.9530
    441 C5         13.9680   -5.1330   -6.2480 C.2      14   C22      -0.5215
    442 C6         15.0790   -5.3540   -6.9650 C.2      14   C22       0.0053
    443 H5'        18.1647   -3.3582  -10.3092 H        14   C22       0.0679
    444 H5''       18.3910   -3.2963   -8.5471 H        14   C22       0.0679
    445 H4'        18.6686   -5.5756   -9.6820 H        14   C22       0.1174
    446 H3'        15.6587   -5.2709   -9.8704 H        14   C22       0.0615
    447 H2'        15.5157   -7.6386   -9.5382 H        14   C22       0.0972
    448 H1'        17.3481   -7.6621   -7.4854 H        14   C22       0.2029
    449 H5         13.5964   -4.1319   -6.0864 H        14   C22       0.1928
    450 H6         15.6143   -4.5163   -7.3870 H        14   C22       0.1958
    451 H41        11.7120   -6.9038   -4.5901 H        14   C22       0.4234
    452 H42        11.8303   -5.1719   -4.8070 H        14   C22       0.4234
    453 HO2'       17.3885   -8.9414   -9.5225 H        14   C22       0.4186
    454 P          15.6980   -5.5720  -12.4800 P.3      15   C23       1.1662
    455 OP1        16.3910   -5.5360  -13.7950 O.co2    15   C23      -0.7760
    456 OP2        14.9320   -4.3880  -12.0080 O.co2    15   C23      -0.7760
    457 O5'        14.7810   -6.8800  -12.4210 O.3      15   C23      -0.4989
    458 C5'        15.2740   -8.1060  -12.9510 C.3      15   C23       0.0558
    459 C4'        14.4910   -9.2910  -12.4340 C.3      15   C23       0.1065
    460 O4'        14.4550   -9.2830  -10.9850 O.3      15   C23      -0.3548
    461 C3'        13.0280   -9.3980  -12.7890 C.3      15   C23       0.2022
    462 O3'        12.8930   -9.8680  -14.1120 O.3      15   C23      -0.5246
    463 C2'        12.5830  -10.4620  -11.7990 C.3      15   C23       0.0670
    464 O2'        13.0600  -11.7430  -12.1450 O.3      15   C23      -0.6139
    465 C1'        13.3260  -10.0170  -10.5430 C.3      15   C23       0.0066
    466 N1         12.4910   -9.1400   -9.7210 N.am     15   C23      -0.0484
    467 C2         11.4610   -9.7130   -8.9730 C.2      15   C23       0.7538
    468 O2         11.3110  -10.9470   -9.0070 O.2      15   C23      -0.6252
    469 N3         10.6580   -8.9130   -8.2370 N.2      15   C23      -0.7584
    470 C4         10.8590   -7.5920   -8.2300 C.2      15   C23       0.8185
    471 N4         10.0380   -6.8420   -7.5010 N.pl3    15   C23      -0.9530
    472 C5         11.9120   -6.9840   -8.9740 C.2      15   C23      -0.5215
    473 C6         12.6980   -7.7880   -9.6980 C.2      15   C23       0.0053
    474 H5'        15.1963   -8.0779  -14.0379 H        15   C23       0.0679
    475 H5''       16.3212   -8.2205  -12.6709 H        15   C23       0.0679
    476 H4'        14.9915  -10.2026  -12.7604 H        15   C23       0.1174
    477 H3'        12.5024   -8.4553  -12.6366 H        15   C23       0.0615
    478 H2'        11.5026  -10.4563  -11.6551 H        15   C23       0.0972
    479 H1'        13.6434  -10.8852   -9.9654 H        15   C23       0.2029
    480 H5         12.0689   -5.9157   -8.9538 H        15   C23       0.1928
    481 H6         13.5079   -7.3638  -10.2729 H        15   C23       0.1958
    482 H41         9.2920   -7.2745   -6.9751 H        15   C23       0.4234
    483 H42        10.1603   -5.8398   -7.4732 H        15   C23       0.4234
    484 HO2'       12.5563  -12.0825  -12.8884 H        15   C23       0.4186
    485 P          11.7400   -9.2710  -15.0510 P.3      16   C24       1.1662
    486 OP1        12.0230   -9.8120  -16.4040 O.co2    16   C24      -0.7760
    487 OP2        11.6360   -7.8030  -14.8460 O.co2    16   C24      -0.7760
    488 O5'        10.4150   -9.9590  -14.5140 O.3      16   C24      -0.4989
    489 C5'        10.2700  -11.3660  -14.5910 C.3      16   C24       0.0558
    490 C4'         9.0380  -11.7950  -13.8500 C.3      16   C24       0.1065
    491 O4'         9.1970  -11.4650  -12.4520 O.3      16   C24      -0.3548
    492 C3'         7.7760  -11.0850  -14.2820 C.3      16   C24       0.2022
    493 O3'         7.2640  -11.6560  -15.4930 O.3      16   C24      -0.5246
    494 C2'         6.9120  -11.1100  -13.0240 C.3      16   C24       0.0670
    495 O2'         6.1100  -12.2520  -12.8350 O.3      16   C24      -0.6139
    496 C1'         7.9690  -11.0270  -11.9160 C.3      16   C24       0.0066
    497 N1          8.1710   -9.6780  -11.3810 N.am     16   C24      -0.0484
    498 C2          7.4060   -9.2710  -10.3030 C.2      16   C24       0.7538
    499 O2          6.6290  -10.0850   -9.7930 O.2      16   C24      -0.6252
    500 N3          7.5270   -8.0060   -9.8400 N.2      16   C24      -0.7584
    501 C4          8.3870   -7.1670  -10.4200 C.2      16   C24       0.8185
    502 N4          8.4500   -5.9160   -9.9660 N.pl3    16   C24      -0.9530
    503 C5          9.2140   -7.5720  -11.4980 C.2      16   C24      -0.5215
    504 C6          9.0760   -8.8270  -11.9440 C.2      16   C24       0.0053
    505 H5'        10.1847  -11.6635  -15.6361 H        16   C24       0.0679
    506 H5''       11.1436  -11.8447  -14.1485 H        16   C24       0.0679
    507 H4'         8.9050  -12.8715  -13.9572 H        16   C24       0.1174
    508 H3'         8.0333  -10.0459  -14.4876 H        16   C24       0.0615
    509 H2'         6.2860  -10.2182  -12.9959 H        16   C24       0.0972
    510 H1'         7.6810  -11.6915  -11.1014 H        16   C24       0.2029
    511 H5          9.9279   -6.8943  -11.9424 H        16   C24       0.1928
    512 H6          9.6910   -9.1708  -12.7625 H        16   C24       0.1958
    513 H41         7.8586   -5.6263   -9.2002 H        16   C24       0.4234
    514 H42         9.0892   -5.2574  -10.3876 H        16   C24       0.4234
    515 HO2'        6.3797  -12.9383  -13.4497 H        16   C24       0.4186
    516 P           6.8100  -13.2070  -15.5500 P.3      17   U25       1.1662
    517 OP1         5.6610  -13.3040  -16.4890 O.co2    17   U25      -0.7760
    518 OP2         6.6950  -13.7740  -14.1860 O.co2    17   U25      -0.7760
    519 O5'         8.0160  -13.9870  -16.2380 O.3      17   U25      -0.4989
    520 C5'         9.1340  -14.3780  -15.4650 C.3      17   U25       0.0558
    521 C4'         9.1580  -15.8720  -15.2650 C.3      17   U25       0.1065
    522 O4'        10.0560  -16.1110  -14.1500 O.3      17   U25      -0.3548
    523 C3'         7.8530  -16.5540  -14.8640 C.3      17   U25       0.2022
    524 O3'         7.1310  -16.9630  -16.0310 O.3      17   U25      -0.5246
    525 C2'         8.3440  -17.7450  -14.0470 C.3      17   U25       0.0670
    526 O2'         8.7980  -18.8140  -14.8550 O.3      17   U25      -0.6139
    527 C1'         9.5470  -17.1400  -13.3240 C.3      17   U25       0.0674
    528 N1          9.2520  -16.5660  -12.0040 N.am     17   U25       0.0418
    529 C2          9.7650  -17.2180  -10.9050 C.2      17   U25       0.4687
    530 O2         10.4260  -18.2390  -10.9930 O.2      17   U25      -0.5477
    531 N3          9.4820  -16.6340   -9.7000 N.am     17   U25      -0.3549
    532 C4          8.7520  -15.4930   -9.4870 C.2      17   U25       0.5952
    533 O4          8.5850  -15.0930   -8.3340 O.2      17   U25      -0.5761
    534 C5          8.2460  -14.8780  -10.6740 C.2      17   U25      -0.3635
    535 C6          8.5060  -15.4230  -11.8630 C.2      17   U25      -0.1126
    536 H5'        10.0460  -14.0727  -15.9780 H        17   U25       0.0679
    537 H5''        9.0876  -13.8867  -14.4931 H        17   U25       0.0679
    538 H4'         9.5564  -16.3506  -16.1596 H        17   U25       0.1174
    539 H3'         7.2454  -15.8901  -14.2490 H        17   U25       0.0615
    540 H2'         7.5848  -18.0790  -13.3397 H        17   U25       0.0972
    541 H1'        10.3111  -17.9089  -13.2097 H        17   U25       0.1824
    542 H3          9.8506  -17.0929   -8.8792 H        17   U25       0.3154
    543 H5          7.6557  -13.9760  -10.6082 H        17   U25       0.1811
    544 H6          8.1142  -14.9463  -12.7493 H        17   U25       0.2188
    545 HO2'        9.6660  -19.0952  -14.5564 H        17   U25       0.4186
    546 P           6.3890  -18.4050  -16.0720 P.3      18   U26       1.1662
    547 OP1         5.7890  -18.6730  -14.7330 O.co2    18   U26      -0.7760
    548 OP2         7.3450  -19.3920  -16.6670 O.co2    18   U26      -0.7760
    549 O5'         5.1940  -18.2060  -17.1110 O.3      18   U26      -0.4989
    550 P           4.9570  -13.1240  -22.3580 P.3      19   C30       1.1662
    551 OP1         5.0920  -13.0810  -20.8740 O.co2    19   C30      -0.7760
    552 OP2         5.9000  -13.9500  -23.1570 O.co2    19   C30      -0.7760
    553 O5'         4.9670  -11.6390  -22.9420 O.3      19   C30      -0.4989
    554 C5'         5.6020  -11.3520  -24.1850 C.3      19   C30       0.0558
    555 C4'         5.3090   -9.9330  -24.6100 C.3      19   C30       0.1065
    556 O4'         3.8760   -9.7740  -24.7630 O.3      19   C30      -0.3548
    557 C3'         5.6990   -8.8370  -23.6260 C.3      19   C30       0.2022
    558 O3'         7.0790   -8.4830  -23.7750 O.3      19   C30      -0.5246
    559 C2'         4.7800   -7.6900  -24.0420 C.3      19   C30       0.0670
    560 O2'         5.2650   -6.9680  -25.1540 O.3      19   C30      -0.6139
    561 C1'         3.5100   -8.4380  -24.4540 C.3      19   C30       0.0066
    562 N1          2.4560   -8.4520  -23.4230 N.am     19   C30      -0.0484
    563 C2          1.7330   -7.2760  -23.1920 C.2      19   C30       0.7538
    564 O2          2.0120   -6.2660  -23.8550 O.2      19   C30      -0.6252
    565 N3          0.7520   -7.2720  -22.2540 N.2      19   C30      -0.7584
    566 C4          0.4840   -8.3840  -21.5620 C.2      19   C30       0.8185
    567 N4         -0.4910   -8.3360  -20.6520 N.pl3    19   C30      -0.9530
    568 C5          1.2070   -9.5960  -21.7740 C.2      19   C30      -0.5215
    569 C6          2.1770   -9.5850  -22.7050 C.2      19   C30       0.0053
    570 H5'         6.6791  -11.4790  -24.0758 H        19   C30       0.0679
    571 H5''        5.2330  -12.0398  -24.9458 H        19   C30       0.0679
    572 H4'         5.7930   -9.7408  -25.5675 H        19   C30       0.1174
    573 H3'         5.4893   -9.1464  -22.6021 H        19   C30       0.0615
    574 H2'         4.5839   -7.0243  -23.2015 H        19   C30       0.0972
    575 H1'         3.1090   -7.9713  -25.3537 H        19   C30       0.2029
    576 H5          0.9835  -10.4883  -21.2080 H        19   C30       0.1928
    577 H6          2.7457  -10.4843  -22.8899 H        19   C30       0.1958
    578 H41        -1.0013   -7.4771  -20.5034 H        19   C30       0.4234
    579 H42        -0.7186   -9.1585  -20.1119 H        19   C30       0.4234
    580 HO2'        5.8753   -6.2902  -24.8546 H        19   C30       0.4186
    581 P           7.8690   -7.7590  -22.5630 P.3      20   G31       1.1662
    582 OP1         9.3270   -7.9430  -22.8030 O.co2    20   G31      -0.7760
    583 OP2         7.2760   -8.2300  -21.2790 O.co2    20   G31      -0.7760
    584 O5'         7.5220   -6.2070  -22.7210 O.3      20   G31      -0.4989
    585 C5'         7.5190   -5.3360  -21.5860 C.3      20   G31       0.0558
    586 C4'         6.4090   -4.3230  -21.7140 C.3      20   G31       0.1065
    587 O4'         5.2030   -5.0290  -22.1060 O.3      20   G31      -0.3548
    588 C3'         6.0090   -3.5740  -20.4440 C.3      20   G31       0.2022
    589 O3'         6.7880   -2.4010  -20.2020 O.3      20   G31      -0.5246
    590 C2'         4.5800   -3.1660  -20.7680 C.3      20   G31       0.0670
    591 O2'         4.5170   -2.0300  -21.6050 O.3      20   G31      -0.6139
    592 C1'         4.0790   -4.3960  -21.5250 C.3      20   G31       0.0191
    593 N9          3.4130   -5.3480  -20.6460 N.ar     20   G31       0.0492
    594 C8          3.5340   -6.7150  -20.6590 C.ar     20   G31       0.1374
    595 N7          2.7780   -7.3030  -19.7700 N.ar     20   G31      -0.5709
    596 C5          2.1280   -6.2580  -19.1240 C.ar     20   G31       0.1744
    597 C6          1.1780   -6.2760  -18.0640 C.2      20   G31       0.4770
    598 O6          0.7050   -7.2490  -17.4720 O.2      20   G31      -0.5597
    599 N1          0.7790   -4.9900  -17.7080 N.am     20   G31      -0.4787
    600 C2          1.2330   -3.8350  -18.2930 C.2      20   G31       0.7657
    601 N2          0.7280   -2.6890  -17.8070 N.pl3    20   G31      -0.9672
    602 N3          2.1170   -3.8040  -19.2820 N.2      20   G31      -0.6323
    603 C4          2.5170   -5.0440  -19.6450 C.ar     20   G31       0.1222
    604 H5'         7.3679   -5.9240  -20.6807 H        20   G31       0.0679
    605 H5''        8.4761   -4.8180  -21.5252 H        20   G31       0.0679
    606 H4'         6.6697   -3.6016  -22.4884 H        20   G31       0.1174
    607 H3'         6.0339   -4.2385  -19.5803 H        20   G31       0.0615
    608 H2'         4.0040   -3.0094  -19.8559 H        20   G31       0.0972
    609 H1'         3.3910   -4.0840  -22.3108 H        20   G31       0.2006
    610 H8          4.1863   -7.2493  -21.3339 H        20   G31       0.1640
    611 H1          0.1038   -4.9009  -16.9622 H        20   G31       0.3424
    612 H21         0.0551   -2.7128  -17.0542 H        20   G31       0.4364
    613 H22         1.0212   -1.8035  -18.1944 H        20   G31       0.4364
    614 HO2'        4.8325   -1.2606  -21.1253 H        20   G31       0.4186
    615 P           7.3790   -2.1090  -18.7260 P.3      21   U32       1.1662
    616 OP1         8.1520   -0.8490  -18.8310 O.co2    21   U32      -0.7760
    617 OP2         8.0620   -3.3550  -18.2850 O.co2    21   U32      -0.7760
    618 O5'         6.1360   -1.8300  -17.7550 O.3      21   U32      -0.4989
    619 C5'         6.3440   -1.6670  -16.3370 C.3      21   U32       0.0558
    620 C4'         5.0280   -1.4280  -15.6120 C.3      21   U32       0.1065
    621 O4'         4.0290   -2.3440  -16.1420 O.3      21   U32      -0.3548
    622 C3'         5.0200   -1.6690  -14.0920 C.3      21   U32       0.2022
    623 O3'         5.5120   -0.5420  -13.3200 O.3      21   U32      -0.5246
    624 C2'         3.5520   -2.0110  -13.8180 C.3      21   U32       0.0670
    625 O2'         2.7190   -0.8820  -13.6200 O.3      21   U32      -0.6139
    626 C1'         3.1450   -2.7460  -15.1030 C.3      21   U32       0.0674
    627 N1          3.1510   -4.2170  -15.0190 N.am     21   U32       0.0418
    628 C2          2.2260   -4.8300  -14.1830 C.2      21   U32       0.4687
    629 O2          1.4290   -4.2110  -13.5030 O.2      21   U32      -0.5477
    630 N3          2.2710   -6.2010  -14.1760 N.am     21   U32      -0.3549
    631 C4          3.1280   -7.0110  -14.9000 C.2      21   U32       0.5952
    632 O4          3.0420   -8.2400  -14.7900 O.2      21   U32      -0.5761
    633 C5          4.0570   -6.3040  -15.7300 C.2      21   U32      -0.3635
    634 C6          4.0380   -4.9660  -15.7580 C.2      21   U32      -0.1126
    635 H5'         6.8098   -2.5690  -15.9401 H        21   U32       0.0679
    636 H5''        7.0058   -0.8177  -16.1673 H        21   U32       0.0679
    637 H4'         4.7028   -0.4058  -15.8056 H        21   U32       0.1174
    638 H3'         5.6329   -2.5427  -13.8703 H        21   U32       0.0615
    639 H2'         3.4785   -2.6838  -12.9636 H        21   U32       0.0972
    640 H1'         2.1383   -2.4261  -15.3720 H        21   U32       0.1824
    641 H3          1.6064   -6.6702  -13.5774 H        21   U32       0.3154
    642 H5          4.7702   -6.8486  -16.3310 H        21   U32       0.1811
    643 H6          4.7493   -4.4521  -16.3876 H        21   U32       0.2188
    644 HO2'        2.7912   -0.5862  -12.7096 H        21   U32       0.4186
    645 P           5.2990   -0.4760  -11.6990 P.3      22   G33       1.1662
    646 OP1         3.9220   -0.9340  -11.3720 O.co2    22   G33      -0.7760
    647 OP2         5.7420    0.8580  -11.2290 O.co2    22   G33      -0.7760
    648 O5'         6.3230   -1.5270  -11.0730 O.3      22   G33      -0.4989
    649 C5'         6.3700   -1.7670   -9.6550 C.3      22   G33       0.0558
    650 C4'         5.1090   -2.4780   -9.2150 C.3      22   G33       0.1065
    651 O4'         4.6660   -3.3290  -10.2920 O.3      22   G33      -0.3548
    652 C3'         5.1760   -3.3850   -7.9910 C.3      22   G33       0.2022
    653 O3'         4.9390   -2.6180   -6.8040 O.3      22   G33      -0.5246
    654 C2'         4.0340   -4.3800   -8.2350 C.3      22   G33       0.0670
    655 O2'         2.8130   -3.9280   -7.6860 O.3      22   G33      -0.6139
    656 C1'         3.9120   -4.3980   -9.7680 C.3      22   G33       0.0191
    657 N9          4.2730   -5.6160  -10.4900 N.ar     22   G33       0.0492
    658 C8          3.7890   -6.8850  -10.2830 C.ar     22   G33       0.1374
    659 N7          4.2460   -7.7550  -11.1410 N.ar     22   G33      -0.5709
    660 C5          5.0980   -7.0180  -11.9530 C.ar     22   G33       0.1744
    661 C6          5.8890   -7.4180  -13.0630 C.2      22   G33       0.4770
    662 O6          5.9960   -8.5380  -13.5710 O.2      22   G33      -0.5597
    663 N1          6.6070   -6.3510  -13.5910 N.am     22   G33      -0.4787
    664 C2          6.5730   -5.0680  -13.1160 C.2      22   G33       0.7657
    665 N2          7.3470   -4.1880  -13.7570 N.pl3    22   G33      -0.9672
    666 N3          5.8390   -4.6800  -12.0890 N.2      22   G33      -0.6323
    667 C4          5.1320   -5.7000  -11.5580 C.ar     22   G33       0.1222
    668 H5'         7.2355   -2.3870   -9.4213 H        22   G33       0.0679
    669 H5''        6.4525   -0.8160   -9.1288 H        22   G33       0.0679
    670 H4'         4.3398   -1.7262   -9.0384 H        22   G33       0.1174
    671 H3'         6.1360   -3.8985   -7.9383 H        22   G33       0.0615
    672 H2'         4.2904   -5.3682   -7.8532 H        22   G33       0.0972
    673 H1'         2.8679   -4.1911  -10.0028 H        22   G33       0.2006
    674 H8          3.1000   -7.1368   -9.4903 H        22   G33       0.1640
    675 H1          7.1999   -6.5372  -14.3872 H        22   G33       0.3424
    676 H21         7.9087   -4.4868  -14.5414 H        22   G33       0.4364
    677 H22         7.3705   -3.2238  -13.4573 H        22   G33       0.4364
    678 HO2'        2.8149   -4.0737   -6.7371 H        22   G33       0.4186
    679 P           4.7680   -3.3540   -5.3790 P.3      23   A34       1.1662
    680 OP1         4.8580   -2.3020   -4.3350 O.co2    23   A34      -0.7760
    681 OP2         5.6900   -4.5200   -5.3320 O.co2    23   A34      -0.7760
    682 O5'         3.2750   -3.9140   -5.3810 O.3      23   A34      -0.4989
    683 C5'         2.2080   -3.1800   -4.7820 C.3      23   A34       0.0558
    684 C4'         1.0000   -4.0730   -4.5850 C.3      23   A34       0.1065
    685 O4'         0.4420   -4.4570   -5.8720 O.3      23   A34      -0.3548
    686 C3'         1.2740   -5.3930   -3.8830 C.3      23   A34       0.2022
    687 O3'         1.2860   -5.1980   -2.4640 O.3      23   A34      -0.5246
    688 C2'         0.1010   -6.2600   -4.3490 C.3      23   A34       0.0670
    689 O2'        -1.0690   -6.0230   -3.5950 O.3      23   A34      -0.6139
    690 C1'        -0.1350   -5.7510   -5.7780 C.3      23   A34       0.0394
    691 N9          0.3900   -6.5740   -6.8770 N.ar     23   A34      -0.0251
    692 C8          1.2470   -6.1410   -7.8570 C.ar     23   A34       0.2006
    693 N7          1.5630   -7.0600   -8.7370 N.ar     23   A34      -0.6073
    694 C5          0.8710   -8.1840   -8.3150 C.ar     23   A34       0.0515
    695 C6          0.7910   -9.4980   -8.8330 C.ar     23   A34       0.7009
    696 N6          1.4440   -9.9050   -9.9230 N.pl3    23   A34      -0.9019
    697 N1          0.0100  -10.3850   -8.1800 N.ar     23   A34      -0.7615
    698 C2         -0.6440   -9.9740   -7.0820 C.ar     23   A34       0.5875
    699 N3         -0.6490   -8.7660   -6.4930 N.ar     23   A34      -0.6997
    700 C4          0.1390   -7.9040   -7.1660 C.ar     23   A34       0.3053
    701 H5'         1.9369   -2.3467   -5.4302 H        23   A34       0.0679
    702 H5''        2.5332   -2.7945   -3.8157 H        23   A34       0.0679
    703 H4'         0.2443   -3.5248   -4.0225 H        23   A34       0.1174
    704 H3'         2.2204   -5.8164   -4.2194 H        23   A34       0.0615
    705 H2'         0.3657   -7.3174   -4.3452 H        23   A34       0.0972
    706 H1'        -1.2105   -5.6482   -5.9223 H        23   A34       0.2007
    707 H8          1.6280   -5.1313   -7.8998 H        23   A34       0.1553
    708 H2         -1.2555  -10.7236   -6.6018 H        23   A34       0.0473
    709 H61         2.0352   -9.2602  -10.4278 H        23   A34       0.4115
    710 H62         1.3472  -10.8579  -10.2433 H        23   A34       0.4115
    711 HO2'       -0.9400   -6.3355   -2.6965 H        23   A34       0.4186
    712 P           2.4000   -5.9370   -1.5540 P.3      24   A35       1.1662
    713 OP1         2.1230   -5.5980   -0.1270 O.co2    24   A35      -0.7760
    714 OP2         3.7540   -5.6680   -2.1250 O.co2    24   A35      -0.7760
    715 O5'         2.0730   -7.4860   -1.7370 O.3      24   A35      -0.4989
    716 C5'         0.8390   -8.0300   -1.2780 C.3      24   A35       0.0558
    717 C4'         0.5690   -9.3420   -1.9670 C.3      24   A35       0.1065
    718 O4'         0.3410   -9.1010   -3.3840 O.3      24   A35      -0.3548
    719 C3'         1.7370  -10.3140   -1.9560 C.3      24   A35       0.2022
    720 O3'         1.8390  -11.0340   -0.7380 O.3      24   A35      -0.5246
    721 C2'         1.4110  -11.2040   -3.1430 C.3      24   A35       0.0670
    722 O2'         0.3900  -12.1340   -2.8420 O.3      24   A35      -0.6139
    723 C1'         0.9060  -10.1630   -4.1480 C.3      24   A35       0.0394
    724 N9          1.9890   -9.6080   -4.9630 N.ar     24   A35      -0.0251
    725 C8          2.5770   -8.3730   -4.8230 C.ar     24   A35       0.2006
    726 N7          3.5450   -8.1460   -5.6770 N.ar     24   A35      -0.6073
    727 C5          3.5970   -9.3040   -6.4360 C.ar     24   A35       0.0515
    728 C6          4.4150   -9.6860   -7.5080 C.ar     24   A35       0.7009
    729 N6          5.3720   -8.9040   -8.0100 N.pl3    24   A35      -0.9019
    730 N1          4.2150  -10.9090   -8.0520 N.ar     24   A35      -0.7615
    731 C2          3.2510  -11.6840   -7.5380 C.ar     24   A35       0.5875
    732 N3          2.4120  -11.4340   -6.5260 N.ar     24   A35      -0.6997
    733 C4          2.6420  -10.2130   -6.0120 C.ar     24   A35       0.3053
    734 H5'         0.8937   -8.1919   -0.2015 H        24   A35       0.0679
    735 H5''        0.0313   -7.3322   -1.4986 H        24   A35       0.0679
    736 H4'        -0.3089   -9.8155   -1.5275 H        24   A35       0.1174
    737 H3'         2.6658   -9.7754   -2.1440 H        24   A35       0.0615
    738 H2'         2.3040  -11.7072   -3.5138 H        24   A35       0.0972
    739 H1'         0.1449  -10.6049   -4.7911 H        24   A35       0.2007
    740 H8          2.2692   -7.6552   -4.0771 H        24   A35       0.1553
    741 H2          3.1341  -12.6494   -8.0079 H        24   A35       0.0473
    742 H61         5.7752   -9.6115   -8.6074 H        24   A35       0.4115
    743 H62         5.6113   -7.9362   -7.8482 H        24   A35       0.4115
    744 HO2'        0.7197  -12.7792   -2.2123 H        24   A35       0.4186
    745 P           3.2790  -11.1900   -0.0420 P.3      25   G36       1.1662
    746 OP1         3.0880  -11.9710    1.2060 O.co2    25   G36      -0.7760
    747 OP2         3.9040   -9.8400    0.0300 O.co2    25   G36      -0.7760
    748 O5'         4.0880  -12.0930   -1.0810 O.3      25   G36      -0.4989
    749 C5'         3.6630  -13.4240   -1.3500 C.3      25   G36       0.0558
    750 C4'         4.3360  -13.9840   -2.5890 C.3      25   G36       0.1065
    751 O4'         4.0340  -13.1540   -3.7480 O.3      25   G36      -0.3548
    752 C3'         5.8530  -14.1020   -2.5880 C.3      25   G36       0.2022
    753 O3'         6.2970  -15.2730   -1.8970 O.3      25   G36      -0.5246
    754 C2'         6.1480  -14.1640   -4.0870 C.3      25   G36       0.0670
    755 O2'         5.9070  -15.4280   -4.6810 O.3      25   G36      -0.6139
    756 C1'         5.1450  -13.1470   -4.6300 C.3      25   G36       0.0191
    757 N9          5.7110  -11.8060   -4.6130 N.ar     25   G36       0.0492
    758 C8          5.3720  -10.7740   -3.7700 C.ar     25   G36       0.1374
    759 N7          6.0470   -9.6830   -3.9990 N.ar     25   G36      -0.5709
    760 C5          6.8800  -10.0170   -5.0540 C.ar     25   G36       0.1744
    761 C6          7.8300   -9.2420   -5.7330 C.2      25   G36       0.4770
    762 O6          8.1250   -8.0570   -5.5370 O.2      25   G36      -0.5597
    763 N1          8.4690   -9.9730   -6.7350 N.am     25   G36      -0.4787
    764 C2          8.2130  -11.2890   -7.0410 C.2      25   G36       0.7657
    765 N2          8.9370  -11.8240   -8.0340 N.pl3    25   G36      -0.9672
    766 N3          7.3130  -12.0240   -6.4130 N.2      25   G36      -0.6323
    767 C4          6.6890  -11.3280   -5.4380 C.ar     25   G36       0.1222
    768 H5'         2.5836  -13.4270   -1.5017 H        25   G36       0.0679
    769 H5''        3.9053  -14.0558   -0.4955 H        25   G36       0.0679
    770 H4'         3.9242  -14.9763   -2.7728 H        25   G36       0.1174
    771 H3'         6.3020  -13.2106   -2.1501 H        25   G36       0.0615
    772 H2'         7.1682  -13.8372   -4.2881 H        25   G36       0.0972
    773 H1'         4.8339  -13.4180   -5.6389 H        25   G36       0.2006
    774 H8          4.6227  -10.8589   -2.9969 H        25   G36       0.1640
    775 H1          9.1754   -9.4981   -7.2786 H        25   G36       0.3424
    776 H21         8.7930  -12.7872   -8.3017 H        25   G36       0.4364
    777 H22         9.6265  -11.2640   -8.5146 H        25   G36       0.4364
    778 HO2'        6.5368  -16.0675   -4.3403 H        25   G36       0.4186
    779 P           7.7470  -15.2890   -1.1830 P.3      26   G37       1.1662
    780 OP1         7.8680  -16.5640   -0.4310 O.co2    26   G37      -0.7760
    781 OP2         8.0090  -14.0020   -0.4760 O.co2    26   G37      -0.7760
    782 O5'         8.7650  -15.3920   -2.4040 O.3      26   G37      -0.4989
    783 C5'         8.9500  -16.6160   -3.0910 C.3      26   G37       0.0558
    784 C4'         9.9780  -16.4410   -4.1720 C.3      26   G37       0.1065
    785 O4'         9.5330  -15.3990   -5.0680 O.3      26   G37      -0.3548
    786 C3'        11.3380  -15.9630   -3.7110 C.3      26   G37       0.2022
    787 O3'        12.1300  -17.0620   -3.3180 O.3      26   G37      -0.5246
    788 C2'        11.8920  -15.3300   -4.9730 C.3      26   G37       0.0670
    789 O2'        12.3460  -16.2730   -5.9160 O.3      26   G37      -0.6139
    790 C1'        10.6430  -14.6700   -5.5320 C.3      26   G37       0.0191
    791 N9         10.4990  -13.3000   -5.0780 N.ar     26   G37       0.0492
    792 C8          9.4660  -12.7640   -4.3590 C.ar     26   G37       0.1374
    793 N7          9.5930  -11.4810   -4.1720 N.ar     26   G37      -0.5709
    794 C5         10.7940  -11.1600   -4.7850 C.ar     26   G37       0.1744
    795 C6         11.4550   -9.9200   -4.9140 C.2      26   G37       0.4770
    796 O6         11.1000   -8.8190   -4.4990 O.2      26   G37      -0.5597
    797 N1         12.6490  -10.0440   -5.6160 N.am     26   G37      -0.4787
    798 C2         13.1410  -11.2210   -6.1300 C.2      26   G37       0.7657
    799 N2         14.3070  -11.1510   -6.7870 N.pl3    26   G37      -0.9672
    800 N3         12.5340  -12.3830   -6.0110 N.2      26   G37      -0.6323
    801 C4         11.3710  -12.2770   -5.3340 C.ar     26   G37       0.1222
    802 H5'         8.0053  -16.9272   -3.5369 H        26   G37       0.0679
    803 H5''        9.2881  -17.3783   -2.3891 H        26   G37       0.0679
    804 H4'        10.0879  -17.3741   -4.7246 H        26   G37       0.1174
    805 H3'        11.2491  -15.2318   -2.9076 H        26   G37       0.0615
    806 H2'        12.6625  -14.5938   -4.7438 H        26   G37       0.0972
    807 H1'        10.6701  -14.6953   -6.6214 H        26   G37       0.2006
    808 H8          8.6339  -13.3428   -3.9861 H        26   G37       0.1640
    809 H1         13.1959   -9.2070   -5.7591 H        26   G37       0.3424
    810 H21        14.7796  -10.2637   -6.8839 H        26   G37       0.4364
    811 H22        14.7132  -11.9856   -7.1852 H        26   G37       0.4364
    812 HO2'       13.1367  -16.7038   -5.5832 H        26   G37       0.4186
    813 P          12.9420  -16.9830   -1.9510 P.3      27   C38       1.1662
    814 OP1        13.2410  -18.3800   -1.5580 O.co2    27   C38      -0.7760
    815 OP2        12.1920  -16.0960   -1.0310 O.co2    27   C38      -0.7760
    816 O5'        14.2950  -16.2510   -2.3470 O.3      27   C38      -0.4989
    817 C5'        15.0880  -16.7380   -3.4180 C.3      27   C38       0.0558
    818 C4'        16.1400  -15.7200   -3.7990 C.3      27   C38       0.1065
    819 O4'        15.5310  -14.5890   -4.4710 O.3      27   C38      -0.3548
    820 C3'        16.8920  -15.0890   -2.6440 C.3      27   C38       0.2022
    821 O3'        17.9220  -15.9350   -2.1680 O.3      27   C38      -0.5246
    822 C2'        17.4350  -13.8180   -3.2770 C.3      27   C38       0.0670
    823 O2'        18.5980  -14.0190   -4.0500 O.3      27   C38      -0.6139
    824 C1'        16.2720  -13.4150   -4.1830 C.3      27   C38       0.0066
    825 N1         15.3720  -12.4510   -3.5420 N.am     27   C38      -0.0484
    826 C2         15.8120  -11.1470   -3.3470 C.2      27   C38       0.7538
    827 O2         16.9450  -10.8390   -3.7170 O.2      27   C38      -0.6252
    828 N3         14.9990  -10.2540   -2.7600 N.2      27   C38      -0.7584
    829 C4         13.7840  -10.6230   -2.3670 C.2      27   C38       0.8185
    830 N4         13.0130   -9.7080   -1.7850 N.pl3    27   C38      -0.9530
    831 C5         13.3040  -11.9500   -2.5510 C.2      27   C38      -0.5215
    832 C6         14.1250  -12.8240   -3.1410 C.2      27   C38       0.0053
    833 H5'        14.4484  -16.9330   -4.2788 H        27   C38       0.0679
    834 H5''       15.5757  -17.6641   -3.1137 H        27   C38       0.0679
    835 H4'        16.8567  -16.1880   -4.4738 H        27   C38       0.1174
    836 H3'        16.2033  -14.8427   -1.8358 H        27   C38       0.0615
    837 H2'        17.6086  -13.0565   -2.5166 H        27   C38       0.0972
    838 H1'        16.6604  -12.9919   -5.1094 H        27   C38       0.2029
    839 H5         12.3153  -12.2393   -2.2267 H        27   C38       0.1928
    840 H6         13.7952  -13.8397   -3.3020 H        27   C38       0.1958
    841 H41        13.3564   -8.7671   -1.6548 H        27   C38       0.4234
    842 H42        12.0844   -9.9543   -1.4734 H        27   C38       0.4234
    843 HO2'       19.2679  -13.3817   -3.7918 H        27   C38       0.4186
    844 P          18.2250  -15.9950   -0.5970 P.3      28   U39       1.1662
    845 OP1        19.0080  -17.2240   -0.3630 O.co2    28   U39      -0.7760
    846 OP2        16.9590  -15.7670    0.1530 O.co2    28   U39      -0.7760
    847 O5'        19.1990  -14.7600   -0.3510 O.3      28   U39      -0.4989
    848 C5'        20.4750  -14.7170   -0.9740 C.3      28   U39       0.0558
    849 C4'        21.0840  -13.3470   -0.8330 C.3      28   U39       0.1065
    850 O4'        20.3360  -12.3790   -1.6160 O.3      28   U39      -0.3548
    851 C3'        21.0680  -12.7670    0.5650 C.3      28   U39       0.2022
    852 O3'        22.1240  -13.3140    1.3460 O.3      28   U39      -0.5246
    853 C2'        21.2590  -11.2860    0.2730 C.3      28   U39       0.0670
    854 O2'        22.5980  -10.9860   -0.0400 O.3      28   U39      -0.6139
    855 C1'        20.3960  -11.1120   -0.9800 C.3      28   U39       0.0674
    856 N1         19.0260  -10.6930   -0.6480 N.am     28   U39       0.0418
    857 C2         18.8010   -9.3530   -0.4420 C.2      28   U39       0.4687
    858 O2         19.6650   -8.5170   -0.5540 O.2      28   U39      -0.5477
    859 N3         17.5200   -9.0270   -0.0950 N.am     28   U39      -0.3549
    860 C4         16.4650   -9.8790    0.0640 C.2      28   U39       0.5952
    861 O4         15.3770   -9.4250    0.3900 O.2      28   U39      -0.5761
    862 C5         16.7650  -11.2510   -0.1760 C.2      28   U39      -0.3635
    863 C6         18.0040  -11.6050   -0.5210 C.2      28   U39      -0.1126
    864 H5'        21.1292  -15.4506   -0.5028 H        28   U39       0.0679
    865 H5''       20.3678  -14.9566   -2.0319 H        28   U39       0.0679
    866 H4'        22.1123  -13.3767   -1.1934 H        28   U39       0.1174
    867 H3'        20.1047  -12.9435    1.0435 H        28   U39       0.0615
    868 H2'        20.8953  -10.6690    1.0947 H        28   U39       0.0972
    869 H1'        20.8550  -10.3832   -1.6480 H        28   U39       0.1824
    870 H3         17.3329   -8.0469    0.0612 H        28   U39       0.3154
    871 H5         15.9934  -12.0004   -0.0791 H        28   U39       0.1811
    872 H6         18.2128  -12.6480   -0.7078 H        28   U39       0.2188
    873 HO2'       22.6367  -10.1524   -0.5145 H        28   U39       0.4186
    874 P          21.8120  -13.9010    2.8100 P.3      29   G40       1.1662
    875 OP1        23.0300  -14.5920    3.2760 O.co2    29   G40      -0.7760
    876 OP2        20.5290  -14.6400    2.7720 O.co2    29   G40      -0.7760
    877 O5'        21.6020  -12.5970    3.6980 O.3      29   G40      -0.4989
    878 C5'        22.6230  -11.6190    3.7880 C.3      29   G40       0.0558
    879 C4'        22.0630  -10.3090    4.2830 C.3      29   G40       0.1065
    880 O4'        21.0590   -9.8130    3.3570 O.3      29   G40      -0.3548
    881 C3'        21.3330  -10.3480    5.6060 C.3      29   G40       0.2022
    882 O3'        22.2530  -10.3490    6.6920 O.3      29   G40      -0.5246
    883 C2'        20.5150   -9.0670    5.5200 C.3      29   G40       0.0670
    884 O2'        21.2900   -7.9040    5.7010 O.3      29   G40      -0.6139
    885 C1'        20.0440   -9.1330    4.0730 C.3      29   G40       0.0191
    886 N9         18.8270   -9.9300    3.9750 N.ar     29   G40       0.0492
    887 C8         18.7350  -11.3040    3.9610 C.ar     29   G40       0.1374
    888 N7         17.5050  -11.7340    3.8960 N.ar     29   G40      -0.5709
    889 C5         16.7430  -10.5770    3.8550 C.ar     29   G40       0.1744
    890 C6         15.3610  -10.4150    3.7740 C.2      29   G40       0.4770
    891 O6         14.4940  -11.2950    3.7320 O.2      29   G40      -0.5597
    892 N1         15.0040   -9.0670    3.7440 N.am     29   G40      -0.4787
    893 C2         15.8850   -8.0160    3.7970 C.2      29   G40       0.7657
    894 N2         15.3660   -6.7870    3.7650 N.pl3    29   G40      -0.9672
    895 N3         17.1840   -8.1600    3.8790 N.2      29   G40      -0.6323
    896 C4         17.5450   -9.4560    3.9000 C.ar     29   G40       0.1222
    897 H5'        23.3899  -11.9650    4.4810 H        29   G40       0.0679
    898 H5''       23.0676  -11.4713    2.8038 H        29   G40       0.0679
    899 H4'        22.8723   -9.5818    4.3482 H        29   G40       0.1174
    900 H3'        20.6785  -11.2181    5.6572 H        29   G40       0.0615
    901 H2'        19.6719   -9.0904    6.2105 H        29   G40       0.0972
    902 H1'        19.8871   -8.1327    3.6693 H        29   G40       0.2006
    903 H8         19.5932  -11.9585    3.9999 H        29   G40       0.1640
    904 H1         14.0204   -8.8472    3.6781 H        29   G40       0.3424
    905 H21        14.3656   -6.6627    3.7031 H        29   G40       0.4364
    906 H22        15.9736   -5.9811    3.8027 H        29   G40       0.4364
    907 HO2'       20.7110   -7.1426    5.7825 H        29   G40       0.4186
    908 P          21.8210  -10.9770    8.1110 P.3      30   A41       1.1662
    909 OP1        22.9900  -10.8360    9.0050 O.co2    30   A41      -0.7760
    910 OP2        21.2250  -12.3230    7.8820 O.co2    30   A41      -0.7760
    911 O5'        20.6920   -9.9950    8.6490 O.3      30   A41      -0.4989
    912 C5'        20.0940  -10.2100    9.9110 C.3      30   A41       0.0558
    913 C4'        19.4780   -8.9310   10.4180 C.3      30   A41       0.1065
    914 O4'        20.5180   -7.9410   10.6250 O.3      30   A41      -0.3548
    915 C3'        18.5220   -8.2540    9.4570 C.3      30   A41       0.2022
    916 O3'        17.2260   -8.8120    9.5680 O.3      30   A41      -0.5246
    917 C2'        18.5340   -6.8130    9.9410 C.3      30   A41       0.0670
    918 O2'        17.6410   -6.6650   11.0230 O.3      30   A41      -0.6139
    919 C1'        19.9830   -6.6480   10.4090 C.3      30   A41       0.0394
    920 N9         20.8920   -5.9340    9.5150 N.ar     30   A41      -0.0251
    921 C8         21.9890   -6.4540    8.8770 C.ar     30   A41       0.2006
    922 N7         22.6810   -5.5660    8.2070 N.ar     30   A41      -0.6073
    923 C5         21.9800   -4.3850    8.4000 C.ar     30   A41       0.0515
    924 C6         22.2000   -3.0780    7.9540 C.ar     30   A41       0.7009
    925 N6         23.2340   -2.7220    7.2000 N.pl3    30   A41      -0.9019
    926 N1         21.3110   -2.1320    8.3150 N.ar     30   A41      -0.7615
    927 C2         20.2770   -2.4890    9.0740 C.ar     30   A41       0.5875
    928 N3         19.9620   -3.6850    9.5610 N.ar     30   A41      -0.6997
    929 C4         20.8650   -4.6020    9.1850 C.ar     30   A41       0.3053
    930 H5'        19.3190  -10.9707    9.8175 H        30   A41       0.0679
    931 H5''       20.8517  -10.5508   10.6166 H        30   A41       0.0679
    932 H4'        18.9677   -9.1235   11.3617 H        30   A41       0.1174
    933 H3'        18.8878   -8.3226    8.4325 H        30   A41       0.0615
    934 H2'        18.2967   -6.1210    9.1330 H        30   A41       0.0972
    935 H1'        19.9706   -6.1246   11.3650 H        30   A41       0.2007
    936 H8         22.2576   -7.4991    8.9227 H        30   A41       0.1553
    937 H2         19.5957   -1.6915    9.3312 H        30   A41       0.0473
    938 HO2'       16.8035   -6.3220   10.7027 H        30   A41       0.4186
    939 H61        23.9144   -3.4128    6.9172 H        30   A41       0.4115
    940 H62        23.3398   -1.7605    6.9094 H        30   A41       0.4115
    941 P          16.4260   -9.2110    8.2350 P.3      31   G42       1.1662
    942 OP1        15.2550  -10.0420    8.6330 O.co2    31   G42      -0.7760
    943 OP2        17.4410   -9.7790    7.2990 O.co2    31   G42      -0.7760
    944 O5'        15.8750   -7.8090    7.7060 O.3      31   G42      -0.4989
    945 C5'        14.8950   -7.0970    8.4590 C.3      31   G42       0.0558
    946 C4'        14.9290   -5.6150    8.1470 C.3      31   G42       0.1065
    947 O4'        16.2320   -5.0570    8.4480 O.3      31   G42      -0.3548
    948 C3'        14.6640   -5.2430    6.7080 C.3      31   G42       0.2022
    949 O3'        13.2580   -5.1520    6.5410 O.3      31   G42      -0.5246
    950 C2'        15.3620   -3.8890    6.5800 C.3      31   G42       0.0670
    951 O2'        14.6090   -2.8200    7.1110 O.3      31   G42      -0.6139
    952 C1'        16.5830   -4.0890    7.4750 C.3      31   G42       0.0191
    953 N9         17.7800   -4.5720    6.7980 N.ar     31   G42       0.0492
    954 C8         18.1450   -5.8830    6.6520 C.ar     31   G42       0.1374
    955 N7         19.2990   -6.0330    6.0630 N.ar     31   G42      -0.5709
    956 C5         19.7160   -4.7430    5.7910 C.ar     31   G42       0.1744
    957 C6         20.8820   -4.2920    5.1690 C.2      31   G42       0.4770
    958 O6         21.8170   -4.9490    4.7390 O.2      31   G42      -0.5597
    959 N1         20.9080   -2.9110    5.0700 N.am     31   G42      -0.4787
    960 C2         19.9300   -2.0730    5.5200 C.2      31   G42       0.7657
    961 N2         20.1530   -0.7790    5.3130 N.pl3    31   G42      -0.9672
    962 N3         18.8230   -2.4800    6.1210 N.2      31   G42      -0.6323
    963 C4         18.7830   -3.8250    6.2210 C.ar     31   G42       0.1222
    964 H5'        13.9073   -7.4882    8.2153 H        31   G42       0.0679
    965 H5''       15.0852   -7.2431    9.5223 H        31   G42       0.0679
    966 H4'        14.1890   -5.1156    8.7724 H        31   G42       0.1174
    967 H3'        15.0956   -5.9752    6.0255 H        31   G42       0.0615
    968 H2'        15.6558   -3.6917    5.5490 H        31   G42       0.0972
    969 H1'        16.8135   -3.1490    7.9764 H        31   G42       0.2006
    970 H8         17.5385   -6.7100    6.9904 H        31   G42       0.1640
    971 H1         21.7144   -2.4911    4.6301 H        31   G42       0.3424
    972 H21        21.0006   -0.4800    4.8523 H        31   G42       0.4364
    973 H22        19.4748   -0.0948    5.6164 H        31   G42       0.4364
    974 HO2'       13.8330   -2.6726    6.5654 H        31   G42       0.4186
    975 P          12.5300   -6.0780    5.4600 P.3      32   A43       1.1662
    976 OP1        11.1130   -6.2110    5.8600 O.co2    32   A43      -0.7760
    977 OP2        13.3610   -7.2850    5.3050 O.co2    32   A43      -0.7760
    978 O5'        12.6050   -5.2370    4.1110 O.3      32   A43      -0.4989
    979 C5'        12.6430   -3.8110    4.1370 C.3      32   A43       0.0558
    980 C4'        13.0310   -3.2820    2.7790 C.3      32   A43       0.1065
    981 O4'        14.3160   -3.7860    2.4000 O.3      32   A43      -0.3548
    982 C3'        12.1060   -3.6450    1.6260 C.3      32   A43       0.2022
    983 O3'        11.2940   -2.4880    1.4430 O.3      32   A43      -0.5246
    984 C2'        13.0290   -3.7690    0.4020 C.3      32   A43       0.0670
    985 O2'        12.8660   -2.7360   -0.5420 O.3      32   A43      -0.6139
    986 C1'        14.4250   -3.6600    1.0160 C.3      32   A43       0.0394
    987 N9         15.4770   -4.5350    0.5290 N.ar     32   A43      -0.0251
    988 C8         15.6000   -5.9010    0.5480 C.ar     32   A43       0.2006
    989 N7         16.7260   -6.3310    0.0290 N.ar     32   A43      -0.6073
    990 C5         17.3790   -5.1680   -0.3570 C.ar     32   A43       0.0515
    991 C6         18.6120   -4.9360   -0.9530 C.ar     32   A43       0.7009
    992 N6         19.4680   -5.9050   -1.2830 N.pl3    32   A43      -0.9019
    993 N1         18.9560   -3.6580   -1.2010 N.ar     32   A43      -0.7615
    994 C2         18.1110   -2.6880   -0.8640 C.ar     32   A43       0.5875
    995 N3         16.9290   -2.7770   -0.2930 N.ar     32   A43      -0.6997
    996 C4         16.6170   -4.0600   -0.0620 C.ar     32   A43       0.3053
    997 H5'        11.6584   -3.4284    4.4058 H        32   A43       0.0679
    998 H5''       13.3734   -3.4817    4.8760 H        32   A43       0.0679
    999 H4'        13.0932   -2.1955    2.8394 H        32   A43       0.1174
   1000 H3'        11.5248   -4.5477    1.8143 H        32   A43       0.0615
   1001 H2'        12.8991   -4.7411   -0.0737 H        32   A43       0.0972
   1002 H1'        14.7632   -2.6411    0.8275 H        32   A43       0.2007
   1003 H8         14.8439   -6.5586    0.9508 H        32   A43       0.1553
   1004 H2         18.4418   -1.6853   -1.0912 H        32   A43       0.0473
   1005 HO2'       12.9810   -3.0896   -1.4271 H        32   A43       0.4186
   1006 H61        20.4269   -6.1257   -1.5107 H        32   A43       0.4115
   1007 H62        19.4006   -6.7032   -0.6678 H        32   A43       0.4115
   1008 P           9.7470   -2.6180    1.0740 P.3      33   A44       1.1662
   1009 OP1         9.4920   -3.9810    0.5340 O.co2    33   A44      -0.7760
   1010 OP2         9.4830   -1.4210    0.2370 O.co2    33   A44      -0.7760
   1011 O5'         9.0180   -2.4220    2.4790 O.3      33   A44      -0.4989
   1012 C5'         9.5320   -1.4730    3.4070 C.3      33   A44       0.0558
   1013 C4'         8.4310   -0.8620    4.2460 C.3      33   A44       0.1065
   1014 O4'         9.0290    0.2460    4.9610 O.3      33   A44      -0.3548
   1015 C3'         7.2340   -0.2880    3.4890 C.3      33   A44       0.2022
   1016 O3'         6.2020   -1.2900    3.3440 O.3      33   A44      -0.5246
   1017 C2'         6.8590    0.9880    4.2510 C.3      33   A44       0.0670
   1018 O2'         5.8840    0.8740    5.2660 O.3      33   A44      -0.6139
   1019 C1'         8.1850    1.3750    4.9060 C.3      33   A44       0.0394
   1020 N9          8.9470    2.4710    4.3150 N.ar     33   A44      -0.0251
   1021 C8          8.9650    3.7950    4.6870 C.ar     33   A44       0.2006
   1022 N7          9.8110    4.5250    4.0030 N.ar     33   A44      -0.6073
   1023 C5         10.3750    3.6260    3.1120 C.ar     33   A44       0.0515
   1024 C6         11.3490    3.7760    2.1150 C.ar     33   A44       0.7009
   1025 N6         11.9500    4.9390    1.8340 N.pl3    33   A44      -0.9019
   1026 N1         11.6910    2.6750    1.4030 N.ar     33   A44      -0.7615
   1027 C2         11.0800    1.5070    1.6880 C.ar     33   A44       0.5875
   1028 N3         10.1500    1.2460    2.6010 N.ar     33   A44      -0.6997
   1029 C4          9.8400    2.3600    3.2840 C.ar     33   A44       0.3053
   1030 H5'        10.2431   -1.9717    4.0656 H        33   A44       0.0679
   1031 H5''       10.0456   -0.6817    2.8609 H        33   A44       0.0679
   1032 H4'         8.0777   -1.6015    4.9646 H        33   A44       0.1174
   1033 H3'         7.5696   -0.0010    2.4925 H        33   A44       0.0615
   1034 H2'         6.5613    1.7619    3.5436 H        33   A44       0.0972
   1035 H1'         7.9627    1.6584    5.9348 H        33   A44       0.2007
   1036 H8          8.3394    4.1959    5.4707 H        33   A44       0.1553
   1037 H2         11.3906    0.6636    1.0891 H        33   A44       0.0473
   1038 HO2'        5.0577    0.5694    4.8839 H        33   A44       0.4186
   1039 H61        11.7083    5.7708    2.3534 H        33   A44       0.4115
   1040 H62        12.6451    4.9845    1.1026 H        33   A44       0.4115
   1041 P           5.2190   -1.6730    4.5860 P.3      34   A45       1.1662
   1042 OP1         4.6510   -3.0110    4.2670 O.co2    34   A45      -0.7760
   1043 OP2         4.2930   -0.5450    4.8770 O.co2    34   A45      -0.7760
   1044 O5'         6.1870   -1.8780    5.8410 O.3      34   A45      -0.4989
   1045 C5'         5.9280   -1.2260    7.0850 C.3      34   A45       0.0558
   1046 C4'         6.7680   -1.8350    8.1910 C.3      34   A45       0.1065
   1047 O4'         8.1670   -1.8770    7.7730 O.3      34   A45      -0.3548
   1048 C3'         6.8150   -1.0320    9.4850 C.3      34   A45       0.2022
   1049 O3'         5.6910   -1.1860   10.3400 O.3      34   A45      -0.5246
   1050 C2'         8.1150   -1.5220   10.1000 C.3      34   A45       0.0670
   1051 O2'         8.0150   -2.8360   10.6190 O.3      34   A45      -0.6139
   1052 C1'         9.0100   -1.5000    8.8620 C.3      34   A45       0.0394
   1053 N9          9.5110   -0.1400    8.6140 N.ar     34   A45      -0.0251
   1054 C8          9.0880    1.0240    9.2100 C.ar     34   A45       0.2006
   1055 N7          9.7210    2.0920    8.7970 N.ar     34   A45      -0.6073
   1056 C5         10.6250    1.6040    7.8660 C.ar     34   A45       0.0515
   1057 C6         11.5910    2.2350    7.0680 C.ar     34   A45       0.7009
   1058 N6         11.8200    3.5460    7.0780 N.pl3    34   A45      -0.9019
   1059 N1         12.3260    1.4640    6.2470 N.ar     34   A45      -0.7615
   1060 C2         12.1010    0.1480    6.2330 C.ar     34   A45       0.5875
   1061 N3         11.2250   -0.5640    6.9330 N.ar     34   A45      -0.6997
   1062 C4         10.5080    0.2320    7.7420 C.ar     34   A45       0.3053
   1063 H5'         4.8727   -1.3365    7.3345 H        34   A45       0.0679
   1064 H5''        6.1672   -0.1666    6.9929 H        34   A45       0.0679
   1065 H4'         6.4187   -2.8460    8.4007 H        34   A45       0.1174
   1066 H3'         6.9226    0.0239    9.2368 H        34   A45       0.0615
   1067 H2'         8.4768   -0.8273   10.8580 H        34   A45       0.0972
   1068 H1'         9.8368   -2.2019    8.9710 H        34   A45       0.2007
   1069 H8          8.3040    1.0543    9.9522 H        34   A45       0.1553
   1070 H2         12.7207   -0.4195    5.5546 H        34   A45       0.0473
   1071 HO2'        8.4417   -2.8746   11.4781 H        34   A45       0.4186
   1072 H61        12.7284    3.8789    6.7881 H        34   A45       0.4115
   1073 H62        11.1015    4.1934    7.3690 H        34   A45       0.4115
   1074 P           5.1670    0.0850   11.1870 P.3      35   U46       1.1662
   1075 OP1         3.7410   -0.1900   11.4970 O.co2    35   U46      -0.7760
   1076 OP2         5.5330    1.3400   10.4660 O.co2    35   U46      -0.7760
   1077 O5'         6.0030    0.0340   12.5490 O.3      35   U46      -0.4989
   1078 C5'         5.8110   -1.0350   13.4760 C.3      35   U46       0.0558
   1079 C4'         5.8310   -0.5280   14.9040 C.3      35   U46       0.1065
   1080 O4'         5.1090   -1.4840   15.7290 O.3      35   U46      -0.3548
   1081 C3'         7.1980   -0.3980   15.5680 C.3      35   U46       0.2022
   1082 O3'         7.8570    0.8460   15.3110 O.3      35   U46      -0.5246
   1083 C2'         6.8720   -0.5780   17.0490 C.3      35   U46       0.0670
   1084 O2'         6.4380    0.6030   17.7000 O.3      35   U46      -0.6139
   1085 C1'         5.7420   -1.6090   16.9920 C.3      35   U46       0.0674
   1086 H5'         6.6090   -1.7661   13.3466 H        35   U46       0.0679
   1087 H5''        4.8514   -1.5129   13.2786 H        35   U46       0.0679
   1088 H4'         5.3217    0.4348   14.9468 H        35   U46       0.1174
   1089 H3'         7.8367   -1.2176   15.2386 H        35   U46       0.0615
   1090 H2'         7.7321   -0.9967   17.5715 H        35   U46       0.0972
   1091 H1'         6.1498   -2.6135   17.1051 H        35   U46       0.1824
   1092 H1''        5.0222   -1.4116   17.7864 H        35   U46       0.0000
   1093 HO2'        7.2008    1.0992   18.0057 H        35   U46       0.4186
   1094 P           9.3690    1.0830   15.8450 P.3      36   A47       1.1662
   1095 OP1         9.4010    0.8330   17.3140 O.co2    36   A47      -0.7760
   1096 OP2         9.8370    2.3960   15.3150 O.co2    36   A47      -0.7760
   1097 O5'        10.2340   -0.0700   15.1510 O.3      36   A47      -0.4989
   1098 C5'         9.8770   -1.4500   15.2950 C.3      36   A47       0.0558
   1099 C4'        10.4880   -2.2790   14.1900 C.3      36   A47       0.1065
   1100 O4'        10.1420   -1.7190   12.8920 O.3      36   A47      -0.3548
   1101 C3'        12.0000   -2.3180   14.1930 C.3      36   A47       0.2022
   1102 O3'        12.4200   -3.3210   15.0970 O.3      36   A47      -0.5246
   1103 C2'        12.3110   -2.6580   12.7410 C.3      36   A47       0.0670
   1104 O2'        12.1310   -4.0280   12.4320 O.3      36   A47      -0.6139
   1105 C1'        11.2450   -1.8390   12.0130 C.3      36   A47       0.0394
   1106 N9         11.6840   -0.4910   11.6650 N.ar     36   A47      -0.0251
   1107 C8         11.2650    0.6930   12.2140 C.ar     36   A47       0.2006
   1108 N7         11.8260    1.7500   11.6820 N.ar     36   A47      -0.6073
   1109 C5         12.6740    1.2250   10.7210 C.ar     36   A47       0.0515
   1110 C6         13.5440    1.8260    9.8180 C.ar     36   A47       0.7009
   1111 N6         13.7110    3.1430    9.7220 N.pl3    36   A47      -0.9019
   1112 N1         14.2520    1.0200    9.0000 N.ar     36   A47      -0.7615
   1113 C2         14.0810   -0.3040    9.0970 C.ar     36   A47       0.5875
   1114 N3         13.2880   -0.9880    9.9060 N.ar     36   A47      -0.6997
   1115 C4         12.6020   -0.1540   10.7040 C.ar     36   A47       0.3053
   1116 H5'        10.2384   -1.8142   16.2567 H        36   A47       0.0679
   1117 H5''        8.7919   -1.5463   15.2588 H        36   A47       0.0679
   1118 H4'        10.1043   -3.2973   14.2535 H        36   A47       0.1174
   1119 H3'        12.4156   -1.3477   14.4650 H        36   A47       0.0615
   1120 H2'        13.3124   -2.3250   12.4683 H        36   A47       0.0972
   1121 H1'        10.9353   -2.3653   11.1101 H        36   A47       0.2007
   1122 H8         10.5391    0.7490   13.0117 H        36   A47       0.1553
   1123 H2         14.6747   -0.8986    8.4185 H        36   A47       0.0473
   1124 HO2'       12.9875   -4.4562   12.3630 H        36   A47       0.4186
   1125 H61        13.1903    3.7634   10.3254 H        36   A47       0.4115
   1126 H62        14.3584    3.5220    9.0457 H        36   A47       0.4115
   1127 P          13.6670   -3.0410   16.0590 P.3      37   C48       1.1662
   1128 OP1        13.6600   -4.1150   17.0860 O.co2    37   C48      -0.7760
   1129 OP2        13.6420   -1.6220   16.4830 O.co2    37   C48      -0.7760
   1130 O5'        14.9280   -3.2380   15.1000 O.3      37   C48      -0.4989
   1131 C5'        15.1040   -4.4480   14.3570 C.3      37   C48       0.0558
   1132 C4'        16.0350   -4.2260   13.1870 C.3      37   C48       0.1065
   1133 O4'        15.4030   -3.3800   12.1870 O.3      37   C48      -0.3548
   1134 C3'        17.3210   -3.4980   13.5100 C.3      37   C48       0.2022
   1135 O3'        18.2720   -4.3850   14.0900 O.3      37   C48      -0.5246
   1136 C2'        17.7260   -2.9890   12.1320 C.3      37   C48       0.0670
   1137 O2'        18.2260   -4.0240   11.3210 O.3      37   C48      -0.6139
   1138 C1'        16.3750   -2.5560   11.5660 C.3      37   C48       0.0066
   1139 N1         16.0630   -1.1530   11.8830 N.am     37   C48      -0.0484
   1140 C2         16.5800   -0.1380   11.0690 C.2      37   C48       0.7538
   1141 O2         17.2400   -0.4490   10.0820 O.2      37   C48      -0.6252
   1142 N3         16.3400    1.1570   11.3860 N.2      37   C48      -0.7584
   1143 C4         15.6120    1.4540   12.4640 C.2      37   C48       0.8185
   1144 N4         15.4280    2.7310   12.7590 N.pl3    37   C48      -0.9530
   1145 C5         15.0490    0.4440   13.2930 C.2      37   C48      -0.5215
   1146 C6         15.2940   -0.8360   12.9680 C.2      37   C48       0.0053
   1147 H5'        14.1359   -4.7834   13.9851 H        37   C48       0.0679
   1148 H5''       15.5232   -5.2134   15.0101 H        37   C48       0.0679
   1149 H4'        16.2755   -5.1891   12.7368 H        37   C48       0.1174
   1150 H3'        17.1248   -2.6614   14.1805 H        37   C48       0.0615
   1151 H2'        18.4234   -2.1539   12.1980 H        37   C48       0.0972
   1152 H1'        16.3573   -2.7072   10.4867 H        37   C48       0.2029
   1153 H5         14.4463    0.6974   14.1526 H        37   C48       0.1928
   1154 H6         14.8770   -1.6272   13.5733 H        37   C48       0.1958
   1155 H41        15.8308    3.4479   12.1725 H        37   C48       0.4234
   1156 H42        14.8848    2.9886   13.5706 H        37   C48       0.4234
   1157 HO2'       18.6066   -3.6503   10.5228 H        37   C48       0.4186
   1158 P          19.3150   -3.8280   15.1870 P.3      38   C49       1.1662
   1159 OP1        20.0810   -4.9640   15.7340 O.co2    38   C49      -0.7760
   1160 OP2        18.5960   -2.9210   16.1110 O.co2    38   C49      -0.7760
   1161 O5'        20.3370   -2.9570   14.3350 O.3      38   C49      -0.4989
   1162 C5'        21.0580   -3.5330   13.2520 C.3      38   C49       0.0558
   1163 C4'        21.7150   -2.4480   12.4440 C.3      38   C49       0.1065
   1164 O4'        20.6890   -1.6560   11.7870 O.3      38   C49      -0.3548
   1165 C3'        22.5130   -1.4460   13.2620 C.3      38   C49       0.2022
   1166 O3'        23.8310   -1.9540   13.4840 O.3      38   C49      -0.5246
   1167 C2'        22.4990   -0.2290   12.3390 C.3      38   C49       0.0670
   1168 O2'        23.4250   -0.3550   11.2730 O.3      38   C49      -0.6139
   1169 C1'        21.0750   -0.2930   11.7710 C.3      38   C49       0.0066
   1170 N1         20.0820    0.4680   12.5470 N.am     38   C49      -0.0484
   1171 C2         20.0860    1.8620   12.4810 C.2      38   C49       0.7538
   1172 O2         20.8960    2.4140   11.7410 O.2      38   C49      -0.6252
   1173 N3         19.2010    2.5670   13.2220 N.2      38   C49      -0.7584
   1174 C4         18.3190    1.9240   13.9930 C.2      38   C49       0.8185
   1175 N4         17.4470    2.6490   14.7020 N.pl3    38   C49      -0.9530
   1176 C5         18.2850    0.5000   14.0680 C.2      38   C49      -0.5215
   1177 C6         19.1750   -0.1810   13.3340 C.2      38   C49       0.0053
   1178 H5'        20.3711   -4.0919   12.6165 H        38   C49       0.0679
   1179 H5''       21.8208   -4.2070   13.6420 H        38   C49       0.0679
   1180 H4'        22.3622   -2.8984   11.6914 H        38   C49       0.1174
   1181 H3'        22.0144   -1.2265   14.2061 H        38   C49       0.0615
   1182 H2'        22.6613    0.6930   12.8973 H        38   C49       0.0972
   1183 H1'        21.0811    0.0674   10.7423 H        38   C49       0.2029
   1184 H5         17.5679   -0.0106   14.6937 H        38   C49       0.1928
   1185 H6         19.1749   -1.2605   13.3654 H        38   C49       0.1958
   1186 H41        17.4674    3.6574   14.6486 H        38   C49       0.4234
   1187 H42        16.7680    2.1881   15.2908 H        38   C49       0.4234
   1188 HO2'       23.9833    0.4252   11.2396 H        38   C49       0.4186
   1189 P          24.5740   -1.7200   14.8980 P.3      39   C50       1.1662
   1190 OP1        25.7040   -2.6690   14.8820 O.co2    39   C50      -0.7760
   1191 OP2        23.6180   -1.7270   16.0360 O.co2    39   C50      -0.7760
   1192 O5'        25.1930   -0.2590   14.7870 O.3      39   C50      -0.4989
   1193 C5'        26.0790    0.0640   13.7300 C.3      39   C50       0.0558
   1194 C4'        26.0540    1.5470   13.4650 C.3      39   C50       0.1065
   1195 O4'        24.7250    1.9590   13.0410 O.3      39   C50      -0.3548
   1196 C3'        26.3420    2.4390   14.6570 C.3      39   C50       0.2022
   1197 O3'        27.7530    2.5290   14.8540 O.3      39   C50      -0.5246
   1198 C2'        25.7550    3.7630   14.1810 C.3      39   C50       0.0670
   1199 O2'        26.6190    4.3740   13.2460 O.3      39   C50      -0.6139
   1200 C1'        24.4920    3.2950   13.4480 C.3      39   C50       0.0066
   1201 N1         23.2670    3.3290   14.2690 N.am     39   C50      -0.0484
   1202 C2         22.6800    4.5630   14.5530 C.2      39   C50       0.7538
   1203 O2         23.1830    5.5860   14.0790 O.2      39   C50      -0.6252
   1204 N3         21.5740    4.6090   15.3320 N.2      39   C50      -0.7584
   1205 C4         21.0470    3.4800   15.8100 C.2      39   C50       0.8185
   1206 N4         19.9580    3.5730   16.5780 N.pl3    39   C50      -0.9530
   1207 C5         21.6130    2.2060   15.5220 C.2      39   C50      -0.5215
   1208 C6         22.7140    2.1770   14.7550 C.2      39   C50       0.0053
   1209 H5'        27.0906   -0.2357   14.0040 H        39   C50       0.0679
   1210 H5''       25.7759   -0.4691   12.8289 H        39   C50       0.0679
   1211 H4'        26.7653    1.7765   12.6716 H        39   C50       0.1174
   1212 H3'        25.8373    2.0797   15.5538 H        39   C50       0.0615
   1213 H2'        25.5204    4.4269   15.0130 H        39   C50       0.0972
   1214 H1'        24.3442    3.9150   12.5638 H        39   C50       0.2029
   1215 H5         21.1732    1.2974   15.9060 H        39   C50       0.1928
   1216 H6         23.1708    1.2276   14.5177 H        39   C50       0.1958
   1217 H41        19.5587    4.4783   16.7806 H        39   C50       0.4234
   1218 H42        19.5339    2.7380   16.9561 H        39   C50       0.4234
   1219 HO2'       26.1101    4.9422   12.6631 H        39   C50       0.4186
   1220 P          28.3410    2.8730   16.3100 P.3      40   G51       1.1662
   1221 OP1        29.8150    2.6920   16.2510 O.co2    40   G51      -0.7760
   1222 OP2        27.5560    2.1540   17.3420 O.co2    40   G51      -0.7760
   1223 O5'        28.0520    4.4290   16.4680 O.3      40   G51      -0.4989
   1224 C5'        28.7510    5.3820   15.6800 C.3      40   G51       0.0558
   1225 C4'        28.3420    6.7760   16.0750 C.3      40   G51       0.1065
   1226 O4'        26.9420    6.9720   15.7680 O.3      40   G51      -0.3548
   1227 C3'        28.4350    7.0900   17.5560 C.3      40   G51       0.2022
   1228 O3'        29.7650    7.4770   17.8700 O.3      40   G51      -0.5246
   1229 C2'        27.4630    8.2600   17.7040 C.3      40   G51       0.0670
   1230 O2'        28.0210    9.5050   17.3350 O.3      40   G51      -0.6139
   1231 C1'        26.3790    7.8920   16.6920 C.3      40   G51       0.0191
   1232 N9         25.1880    7.2860   17.2700 N.ar     40   G51       0.0492
   1233 C8         24.8850    5.9500   17.3020 C.ar     40   G51       0.1374
   1234 N7         23.7370    5.7020   17.8620 N.ar     40   G51      -0.5709
   1235 C5         23.2570    6.9520   18.2260 C.ar     40   G51       0.1744
   1236 C6         22.0530    7.3160   18.8710 C.2      40   G51       0.4770
   1237 O6         21.1430    6.5880   19.2670 O.2      40   G51      -0.5597
   1238 N1         21.9610    8.6850   19.0440 N.am     40   G51      -0.4787
   1239 C2         22.9080    9.5870   18.6560 C.2      40   G51       0.7657
   1240 N2         22.6350   10.8620   18.9320 N.pl3    40   G51      -0.9672
   1241 N3         24.0390    9.2620   18.0490 N.2      40   G51      -0.6323
   1242 C4         24.1450    7.9370   17.8690 C.ar     40   G51       0.1222
   1243 H5'        29.8231    5.2626   15.8362 H        40   G51       0.0679
   1244 H5''       28.5186    5.2213   14.6273 H        40   G51       0.0679
   1245 H4'        28.9375    7.4978   15.5160 H        40   G51       0.1174
   1246 H3'        28.1203    6.2384   18.1592 H        40   G51       0.0615
   1247 H2'        27.0546    8.3009   18.7138 H        40   G51       0.0972
   1248 H1'        26.0854    8.7925   16.1525 H        40   G51       0.2006
   1249 H8         25.5320    5.1824   16.9037 H        40   G51       0.1640
   1250 H1         21.1298    9.0442   19.4915 H        40   G51       0.3424
   1251 H21        21.7718   11.1044   19.3971 H        40   G51       0.4364
   1252 H22        23.2913   11.5858   18.6761 H        40   G51       0.4364
   1253 HO2'       28.7046    9.7487   17.9634 H        40   G51       0.4186
   1254 P          30.5130    6.8370   19.1420 P.3      41   U52       1.1662
   1255 OP1        30.4450    5.3530   19.0480 O.co2    41   U52      -0.7760
   1256 OP2        30.0220    7.5190   20.3700 O.co2    41   U52      -0.7760
   1257 O5'        32.0270    7.2460   18.8800 O.3      41   U52      -0.4989
   1258 C5'        32.8680    6.4230   18.0770 C.3      41   U52       0.0558
   1259 C4'        33.9820    7.2440   17.4690 C.3      41   U52       0.1065
   1260 O4'        33.4710    8.0810   16.4120 O.3      41   U52      -0.3548
   1261 C3'        34.7330    8.1620   18.4190 C.3      41   U52       0.2022
   1262 O3'        35.7640    7.4300   19.1180 O.3      41   U52      -0.5246
   1263 C2'        35.1740    9.3490   17.5520 C.3      41   U52       0.0670
   1264 O2'        36.5010    9.2750   17.0670 O.3      41   U52      -0.6139
   1265 C1'        34.1690    9.3090   16.3880 C.3      41   U52       0.0674
   1266 N1         33.1660   10.3750   16.2430 N.am     41   U52       0.0418
   1267 C2         33.5860   11.6930   16.1350 C.2      41   U52       0.4687
   1268 O2         34.7570   12.0310   16.2120 O.2      41   U52      -0.5477
   1269 N3         32.5730   12.6020   15.9260 N.am     41   U52      -0.3549
   1270 C4         31.2150   12.3350   15.8210 C.2      41   U52       0.5952
   1271 O4         30.4230   13.2590   15.6160 O.2      41   U52      -0.5761
   1272 C5         30.8680   10.9570   15.9660 C.2      41   U52      -0.3635
   1273 C6         31.8270   10.0500   16.1730 C.2      41   U52      -0.1126
   1274 H5'        33.2986    5.6365   18.6968 H        41   U52       0.0679
   1275 H5''       32.2766    5.9715   17.2805 H        41   U52       0.0679
   1276 H4'        34.7036    6.5549   17.0301 H        41   U52       0.1174
   1277 H3'        34.0236    8.5321   19.1591 H        41   U52       0.0615
   1278 H2'        35.0437   10.2751   18.1119 H        41   U52       0.0972
   1279 H1'        34.7580    9.3119   15.4708 H        41   U52       0.1824
   1280 H3         32.8486   13.5698   15.8396 H        41   U52       0.3154
   1281 H5         29.8343   10.6494   15.9085 H        41   U52       0.1811
   1282 H6         31.5410    9.0153   16.2909 H        41   U52       0.2188
   1283 HO2'       36.9644    8.5599   17.5092 H        41   U52       0.4186
   1284 P          36.8490    6.5320   18.3030 P.3      42   A53       1.1662
   1285 OP1        37.1610    5.3760   19.1820 O.co2    42   A53      -0.7760
   1286 OP2        37.9540    7.3870   17.7920 O.co2    42   A53      -0.7760
   1287 O5'        36.0630    5.9190   17.0580 O.3      42   A53      -0.4989
   1288 C5'        36.6950    5.7340   15.7920 C.3      42   A53       0.0558
   1289 C4'        35.8100    4.9010   14.8900 C.3      42   A53       0.1065
   1290 O4'        34.4680    5.4390   14.8790 O.3      42   A53      -0.3548
   1291 C3'        36.2210    4.8220   13.4270 C.3      42   A53       0.2022
   1292 O3'        37.1270    3.7240   13.2860 O.3      42   A53      -0.5246
   1293 C2'        34.8990    4.5210   12.7050 C.3      42   A53       0.0670
   1294 O2'        34.6360    3.1370   12.5860 O.3      42   A53      -0.6139
   1295 C1'        33.8530    5.1260   13.6480 C.3      42   A53       0.0394
   1296 N9         33.0940    6.2890   13.1860 N.ar     42   A53      -0.0251
   1297 C8         31.7500    6.3220   12.9060 C.ar     42   A53       0.2006
   1298 N7         31.3110    7.5050   12.5490 N.ar     42   A53      -0.6073
   1299 C5         32.4430    8.3050   12.5850 C.ar     42   A53       0.0515
   1300 C6         32.6440    9.6680   12.3130 C.ar     42   A53       0.7009
   1301 N6         31.6710   10.5000   11.9370 N.pl3    42   A53      -0.9019
   1302 N1         33.8950   10.1550   12.4420 N.ar     42   A53      -0.7615
   1303 C2         34.8710    9.3200   12.8220 C.ar     42   A53       0.5875
   1304 N3         34.8080    8.0190   13.1070 N.ar     42   A53      -0.6997
   1305 C4         33.5520    7.5670   12.9670 C.ar     42   A53       0.3053
   1306 H5'        37.6473    5.2234   15.9350 H        42   A53       0.0679
   1307 H5''       36.8709    6.7054   15.3298 H        42   A53       0.0679
   1308 H4'        35.7698    3.8878   15.2899 H        42   A53       0.1174
   1309 H3'        36.6642    5.7563   13.0824 H        42   A53       0.0615
   1310 H2'        34.8698    5.0070   11.7298 H        42   A53       0.0972
   1311 H1'        33.1260    4.3402   13.8531 H        42   A53       0.2007
   1312 H8         31.1126    5.4528   12.9737 H        42   A53       0.1553
   1313 H2         35.8510    9.7651   12.9103 H        42   A53       0.0473
   1314 HO2'       35.2923    2.6423   13.0821 H        42   A53       0.4186
   1315 H61        30.8847   10.0441   12.3774 H        42   A53       0.4115
   1316 H62        31.7095   11.3393   11.3765 H        42   A53       0.4115
   1317 P          38.3500    3.7990   12.2390 P.3      43   U54       1.1662
   1318 OP1        39.5980    3.7780   13.0570 O.co2    43   U54      -0.7760
   1319 OP2        38.1210    4.9130   11.2730 O.co2    43   U54      -0.7760
   1320 O5'        38.2530    2.4090   11.4520 O.3      43   U54      -0.4989
   1321 C5'        39.2620    1.4100   11.6040 C.3      43   U54       0.0558
   1322 C4'        38.8290    0.1010   10.9750 C.3      43   U54       0.1065
   1323 O4'        39.9800   -0.7870   10.9410 O.3      43   U54      -0.3548
   1324 C3'        37.7470   -0.6870   11.7110 C.3      43   U54       0.2022
   1325 O3'        36.4300   -0.3040   11.3030 O.3      43   U54      -0.5246
   1326 C2'        38.0450   -2.1240   11.2920 C.3      43   U54       0.0670
   1327 O2'        37.5030   -2.4570   10.0280 O.3      43   U54      -0.6139
   1328 C1'        39.5740   -2.1150   11.2230 C.3      43   U54       0.0674
   1329 H5'        40.1775    1.7518   11.1211 H        43   U54       0.0679
   1330 H5''       39.4536    1.2521   12.6653 H        43   U54       0.0679
   1331 H4'        38.4972    0.2907    9.9542 H        43   U54       0.1174
   1332 H3'        37.8599   -0.5734   12.7892 H        43   U54       0.0615
   1333 H2'        37.7002   -2.8241   12.0530 H        43   U54       0.0972
   1334 H1'        39.9913   -2.4369   12.1771 H        43   U54       0.1824
   1335 H1''       39.9117   -2.7809   10.4288 H        43   U54       0.0000
   1336 HO2'       36.5445   -2.4601   10.0811 H        43   U54       0.4186
   1337 P          35.1430   -0.8590   12.1090 P.3      44   C55       1.1662
   1338 OP1        34.9280    0.0510   13.2670 O.co2    44   C55      -0.7760
   1339 OP2        35.2890   -2.3210   12.3440 O.co2    44   C55      -0.7760
   1340 O5'        33.9310   -0.6660   11.0890 O.3      44   C55      -0.4989
   1341 C5'        33.8020   -1.4860    9.9250 C.3      44   C55       0.0558
   1342 C4'        32.5660   -2.3520   10.0370 C.3      44   C55       0.1065
   1343 O4'        32.8050   -3.4100   11.0060 O.3      44   C55      -0.3548
   1344 C3'        31.3340   -1.6290   10.5660 C.3      44   C55       0.2022
   1345 O3'        30.6280   -0.9350    9.5460 O.3      44   C55      -0.5246
   1346 C2'        30.5130   -2.7600   11.1730 C.3      44   C55       0.0670
   1347 O2'        29.7330   -3.4450   10.2130 O.3      44   C55      -0.6139
   1348 C1'        31.6120   -3.6690   11.7360 C.3      44   C55       0.0066
   1349 H5'        33.7188   -0.8506    9.0433 H        44   C55       0.0679
   1350 H5''       34.6822   -2.1220    9.8310 H        44   C55       0.0679
   1351 H4'        32.3407   -2.7922    9.0656 H        44   C55       0.1174
   1352 H3'        31.6280   -0.9294   11.3485 H        44   C55       0.0615
   1353 H2'        29.8817   -2.3828   11.9775 H        44   C55       0.0972
   1354 H1'        31.3251   -4.7140   11.6190 H        44   C55       0.2029
   1355 H1''       31.7699   -3.4461   12.7912 H        44   C55       0.0000
   1356 HO2'       29.0528   -2.8580    9.8748 H        44   C55       0.4186
   1357 P          30.2360    0.6030    9.7790 P.3      45   A56       1.1662
   1358 OP1        31.0840    1.4190    8.8690 O.co2    45   A56      -0.7760
   1359 OP2        30.2880    0.8410   11.2450 O.co2    45   A56      -0.7760
   1360 O5'        28.7180    0.7150    9.2970 O.3      45   A56      -0.4989
   1361 C5'        27.7060   -0.1250    9.8490 C.3      45   A56       0.0558
   1362 C4'        26.3370    0.5010    9.6690 C.3      45   A56       0.1065
   1363 O4'        26.2200    1.6880   10.4970 O.3      45   A56      -0.3548
   1364 C3'        25.9880    0.9950    8.2780 C.3      45   A56       0.2022
   1365 O3'        25.4900   -0.0560    7.4660 O.3      45   A56      -0.5246
   1366 C2'        24.8680    1.9680    8.5850 C.3      45   A56       0.0670
   1367 O2'        23.6870    1.2600    8.8830 O.3      45   A56      -0.6139
   1368 C1'        25.3950    2.6420    9.8520 C.3      45   A56       0.0394
   1369 N9         26.2040    3.8340    9.5860 N.ar     45   A56      -0.0251
   1370 C8         27.5380    3.8560    9.2860 C.ar     45   A56       0.2006
   1371 N7         28.0190    5.0600    9.1030 N.ar     45   A56      -0.6073
   1372 C5         26.9250    5.8930    9.2920 C.ar     45   A56       0.0515
   1373 C6         26.7760    7.3000    9.2390 C.ar     45   A56       0.7009
   1374 N6         27.7690    8.1480    8.9610 N.pl3    45   A56      -0.9019
   1375 N1         25.5560    7.8110    9.4830 N.ar     45   A56      -0.7615
   1376 C2         24.5590    6.9710    9.7530 C.ar     45   A56       0.5875
   1377 N3         24.5700    5.6420    9.8290 N.ar     45   A56      -0.6997
   1378 C4         25.8000    5.1550    9.5870 C.ar     45   A56       0.3053
   1379 H5'        27.8983   -0.2660   10.9126 H        45   A56       0.0679
   1380 H5''       27.7282   -1.0926    9.3477 H        45   A56       0.0679
   1381 H4'        25.5809   -0.2186    9.9830 H        45   A56       0.1174
   1382 H3'        26.8344    1.4958    7.8081 H        45   A56       0.0615
   1383 H2'        24.7191    2.6837    7.7765 H        45   A56       0.0972
   1384 H1'        24.5601    2.9035   10.5021 H        45   A56       0.2007
   1385 H8         28.1395    2.9625    9.2073 H        45   A56       0.1553
   1386 H2         23.6016    7.4356    9.9373 H        45   A56       0.0473
   1387 H61        27.6143    9.1429    9.0407 H        45   A56       0.4115
   1388 H62        28.6707    7.7963    8.6724 H        45   A56       0.4115
   1389 HO2'       22.9812    1.8812    9.0766 H        45   A56       0.4186
   1390 P          25.8580   -0.0950    5.9040 P.3      46   C57       1.1662
   1391 OP1        24.8230   -0.8980    5.2200 O.co2    46   C57      -0.7760
   1392 OP2        27.2850   -0.4710    5.7670 O.co2    46   C57      -0.7760
   1393 O5'        25.6790    1.4160    5.4360 O.3      46   C57      -0.4989
   1394 C5'        24.3840    1.9620    5.2070 C.3      46   C57       0.0558
   1395 C4'        24.4700    3.4490    4.9390 C.3      46   C57       0.1065
   1396 O4'        25.1420    4.0760    6.0610 O.3      46   C57      -0.3548
   1397 C3'        25.2700    3.9110    3.7250 C.3      46   C57       0.2022
   1398 O3'        24.4920    3.9010    2.5330 O.3      46   C57      -0.5246
   1399 C2'        25.6090    5.3340    4.1260 C.3      46   C57       0.0670
   1400 O2'        24.4880    6.1810    4.0270 O.3      46   C57      -0.6139
   1401 C1'        25.9460    5.1450    5.6020 C.3      46   C57       0.0066
   1402 N1         27.3500    4.7670    5.7890 N.am     46   C57      -0.0484
   1403 C2         28.3010    5.7710    5.9320 C.2      46   C57       0.7538
   1404 O2         27.9270    6.9470    5.9040 O.2      46   C57      -0.6252
   1405 N3         29.6010    5.4380    6.0970 N.2      46   C57      -0.7584
   1406 C4         29.9550    4.1550    6.1230 C.2      46   C57       0.8185
   1407 N4         31.2390    3.8640    6.2910 N.pl3    46   C57      -0.9530
   1408 C5         29.0030    3.1070    5.9770 C.2      46   C57      -0.5215
   1409 C6         27.7240    3.4550    5.8160 C.2      46   C57       0.0053
   1410 H5'        23.9351    1.4686    4.3449 H        46   C57       0.0679
   1411 H5''       23.7608    1.7901    6.0846 H        46   C57       0.0679
   1412 H4'        23.4595    3.8511    4.8665 H        46   C57       0.1174
   1413 H3'        26.1743    3.3145    3.6047 H        46   C57       0.0615
   1414 H2'        26.4588    5.7209    3.5637 H        46   C57       0.0972
   1415 H1'        25.7215    6.0538    6.1604 H        46   C57       0.2029
   1416 H5         29.3037    2.0699    5.9957 H        46   C57       0.1928
   1417 H6         26.9738    2.6860    5.7054 H        46   C57       0.1958
   1418 H41        31.9157    4.6066    6.3947 H        46   C57       0.4234
   1419 H42        31.5394    2.9000    6.3151 H        46   C57       0.4234
   1420 HO2'       23.8429    5.9382    4.6952 H        46   C57       0.4186
   1421 P          25.2190    3.9720    1.0990 P.3      47   C58       1.1662
   1422 OP1        24.1750    3.8470    0.0470 O.co2    47   C58      -0.7760
   1423 OP2        26.3680    3.0370    1.0980 O.co2    47   C58      -0.7760
   1424 O5'        25.7940    5.4560    1.0210 O.3      47   C58      -0.4989
   1425 C5'        24.9240    6.5820    0.9090 C.3      47   C58       0.0558
   1426 C4'        25.7300    7.8530    0.7170 C.3      47   C58       0.1065
   1427 O4'        26.5350    8.1150    1.8980 O.3      47   C58      -0.3548
   1428 C3'        26.7190    7.8390   -0.4430 C.3      47   C58       0.2022
   1429 O3'        26.0750    8.2740   -1.6330 O.3      47   C58      -0.5246
   1430 C2'        27.7660    8.8540   -0.0010 C.3      47   C58       0.0670
   1431 O2'        27.3940   10.1870   -0.2890 O.3      47   C58      -0.6139
   1432 C1'        27.7960    8.6300    1.5110 C.3      47   C58       0.0066
   1433 N1         28.8230    7.6730    1.9370 N.am     47   C58      -0.0484
   1434 C2         30.1490    8.0930    1.9920 C.2      47   C58       0.7538
   1435 O2         30.4180    9.2550    1.6440 O.2      47   C58      -0.6252
   1436 N3         31.1030    7.2240    2.4170 N.2      47   C58      -0.7584
   1437 C4         30.7620    5.9820    2.7730 C.2      47   C58       0.8185
   1438 N4         31.7230    5.1600    3.1980 N.pl3    47   C58      -0.9530
   1439 C5         29.4170    5.5270    2.7110 C.2      47   C58      -0.5215
   1440 C6         28.4880    6.3950    2.2880 C.2      47   C58       0.0053
   1441 H5'        24.2637    6.4423    0.0531 H        47   C58       0.0679
   1442 H5''       24.3258    6.6675    1.8162 H        47   C58       0.0679
   1443 H4'        25.0396    8.6845    0.5753 H        47   C58       0.1174
   1444 H3'        27.1594    6.8504   -0.5727 H        47   C58       0.0615
   1445 H2'        28.7353    8.6223   -0.4425 H        47   C58       0.0972
   1446 H1'        27.9636    9.5834    2.0120 H        47   C58       0.2029
   1447 H5         29.1534    4.5187    2.9944 H        47   C58       0.1928
   1448 H6         27.4571    6.0796    2.2233 H        47   C58       0.1958
   1449 H41        32.6793    5.4819    3.2434 H        47   C58       0.4234
   1450 H42        31.4943    4.2158    3.4743 H        47   C58       0.4234
   1451 HO2'       27.9355   10.5228   -1.0071 H        47   C58       0.4186
   1452 P          26.5900    7.7480   -3.0570 P.3      48   U59       1.1662
   1453 OP1        25.6320    8.2140   -4.0950 O.co2    48   U59      -0.7760
   1454 OP2        26.8840    6.3020   -2.9320 O.co2    48   U59      -0.7760
   1455 O5'        27.9540    8.5390   -3.2680 O.3      48   U59      -0.4989
   1456 C5'        27.9630    9.9550   -3.4040 C.3      48   U59       0.0558
   1457 C4'        29.3750   10.4580   -3.3360 C.3      48   U59       0.1065
   1458 O4'        29.9290   10.0960   -2.0470 O.3      48   U59      -0.3548
   1459 C3'        30.3070    9.8050   -4.3360 C.3      48   U59       0.2022
   1460 O3'        30.2450   10.4820   -5.5770 O.3      48   U59      -0.5246
   1461 C2'        31.6650    9.9350   -3.6600 C.3      48   U59       0.0670
   1462 O2'        32.2410   11.2220   -3.8020 O.3      48   U59      -0.6139
   1463 C1'        31.2840    9.7250   -2.1960 C.3      48   U59       0.0674
   1464 N1         31.4340    8.3630   -1.6710 N.am     48   U59       0.0418
   1465 C2         32.7080    7.8630   -1.5310 C.2      48   U59       0.4687
   1466 O2         33.6880    8.4520   -1.9320 O.2      48   U59      -0.5477
   1467 N3         32.7890    6.6440   -0.9060 N.am     48   U59      -0.3549
   1468 C4         31.7420    5.8830   -0.4380 C.2      48   U59       0.5952
   1469 O4         31.9730    4.8270    0.1440 O.2      48   U59      -0.5761
   1470 C5         30.4480    6.4440   -0.6750 C.2      48   U59      -0.3635
   1471 C6         30.3430    7.6340   -1.2790 C.2      48   U59      -0.1126
   1472 H5'        27.5259   10.2299   -4.3639 H        48   U59       0.0679
   1473 H5''       27.3796   10.4008   -2.5984 H        48   U59       0.0679
   1474 H4'        29.3927   11.5408   -3.4600 H        48   U59       0.1174
   1475 H3'        30.0475    8.7542   -4.4649 H        48   U59       0.0615
   1476 H2'        32.3495    9.1589   -4.0024 H        48   U59       0.0972
   1477 H1'        31.8903   10.3946   -1.5860 H        48   U59       0.1824
   1478 H3         33.7159    6.2647   -0.7755 H        48   U59       0.3154
   1479 H5         29.5604    5.9105   -0.3684 H        48   U59       0.1811
   1480 H6         29.3578    8.0355   -1.4647 H        48   U59       0.2188
   1481 HO2'       32.4845   11.3646   -4.7196 H        48   U59       0.4186
   1482 P          30.1080    9.6320   -6.9220 P.3      49   G60       1.1662
   1483 OP1        29.8160   10.5820   -8.0230 O.co2    49   G60      -0.7760
   1484 OP2        29.1890    8.5000   -6.6660 O.co2    49   G60      -0.7760
   1485 O5'        31.5600    9.0220   -7.1210 O.3      49   G60      -0.4989
   1486 C5'        32.6690    9.8660   -7.3800 C.3      49   G60       0.0558
   1487 C4'        33.9370    9.0870   -7.2180 C.3      49   G60       0.1065
   1488 O4'        34.0380    8.6710   -5.8330 O.3      49   G60      -0.3548
   1489 C3'        33.9890    7.7850   -7.9960 C.3      49   G60       0.2022
   1490 O3'        34.5050    7.9960   -9.3010 O.3      49   G60      -0.5246
   1491 C2'        35.0200    7.0030   -7.1970 C.3      49   G60       0.0670
   1492 O2'        36.3330    7.4360   -7.4760 O.3      49   G60      -0.6139
   1493 C1'        34.6720    7.4070   -5.7650 C.3      49   G60       0.0191
   1494 N9         33.7710    6.4690   -5.0990 N.ar     49   G60       0.0492
   1495 C8         32.4080    6.3860   -5.2380 C.ar     49   G60       0.1374
   1496 N7         31.8740    5.4590   -4.4870 N.ar     49   G60      -0.5709
   1497 C5         32.9490    4.8960   -3.8170 C.ar     49   G60       0.1744
   1498 C6         32.9880    3.8560   -2.8660 C.2      49   G60       0.4770
   1499 O6         32.0470    3.2000   -2.3990 O.2      49   G60      -0.5597
   1500 N1         34.2870    3.5960   -2.4500 N.am     49   G60      -0.4787
   1501 C2         35.4050    4.2500   -2.8920 C.2      49   G60       0.7657
   1502 N2         36.5760    3.8420   -2.3830 N.pl3    49   G60      -0.9672
   1503 N3         35.3800    5.2290   -3.7720 N.2      49   G60      -0.6323
   1504 C4         34.1280    5.4990   -4.1900 C.ar     49   G60       0.1222
   1505 H5'        32.6627   10.6998   -6.6780 H        49   G60       0.0679
   1506 H5''       32.6048   10.2481   -8.3988 H        49   G60       0.0679
   1507 H4'        34.7914    9.7105   -7.4811 H        49   G60       0.1174
   1508 H3'        33.0218    7.2828   -8.0160 H        49   G60       0.0615
   1509 H2'        34.9123    5.9288   -7.3473 H        49   G60       0.0972
   1510 H1'        35.5900    7.4967   -5.1842 H        49   G60       0.2006
   1511 H8         31.8363    7.0205   -5.8990 H        49   G60       0.1640
   1512 H1         34.4174    2.8648   -1.7656 H        49   G60       0.3424
   1513 H21        36.5992    3.0901   -1.7091 H        49   G60       0.4364
   1514 H22        37.4352    4.2865   -2.6734 H        49   G60       0.4364
   1515 HO2'       36.5678    7.1896   -8.3736 H        49   G60       0.4186
   1516 P          33.5220    8.0300  -10.5750 P.3      50   A61       1.1662
   1517 OP1        34.3130    7.5070  -11.7090 O.co2    50   A61      -0.7760
   1518 OP2        32.9200    9.3840  -10.6620 O.co2    50   A61      -0.7760
   1519 O5'        32.3480    6.9780  -10.3070 O.3      50   A61      -0.4989
   1520 C5'        31.3170    6.7990  -11.2920 C.3      50   A61       0.0558
   1521 C4'        30.1870    5.9380  -10.7640 C.3      50   A61       0.1065
   1522 O4'        30.7330    4.6580  -10.3750 O.3      50   A61      -0.3548
   1523 C3'        29.5180    6.5150   -9.5220 C.3      50   A61       0.2022
   1524 O3'        28.0880    6.5190   -9.5080 O.3      50   A61      -0.5246
   1525 C2'        30.1520    5.8010   -8.3350 C.3      50   A61       0.0670
   1526 O2'        29.1720    5.4170   -7.3900 O.3      50   A61      -0.6139
   1527 C1'        30.6870    4.5140   -8.9730 C.3      50   A61       0.0394
   1528 N9         31.9990    4.0760   -8.5070 N.ar     50   A61      -0.0251
   1529 C8         33.2220    4.3750   -9.0380 C.ar     50   A61       0.2006
   1530 N7         34.2220    3.8480   -8.3800 N.ar     50   A61      -0.6073
   1531 C5         33.6140    3.1480   -7.3450 C.ar     50   A61       0.0515
   1532 C6         34.1310    2.3690   -6.2830 C.ar     50   A61       0.7009
   1533 N6         35.4410    2.1660   -6.0760 N.pl3    50   A61      -0.9019
   1534 N1         33.2450    1.8020   -5.4310 N.ar     50   A61      -0.7615
   1535 C2         31.9420    2.0130   -5.6340 C.ar     50   A61       0.5875
   1536 N3         31.3410    2.7260   -6.5840 N.ar     50   A61      -0.6997
   1537 C4         32.2440    3.2730   -7.4170 C.ar     50   A61       0.3053
   1538 H5'        30.9186    7.7751  -11.5688 H        50   A61       0.0679
   1539 H5''       31.7451    6.3244  -12.1750 H        50   A61       0.0679
   1540 H4'        29.4417    5.7942  -11.5463 H        50   A61       0.1174
   1541 H3'        29.8306    7.5573   -9.4586 H        50   A61       0.0615
   1542 H2'        30.9472    6.3921   -7.8807 H        50   A61       0.0972
   1543 H1'        29.9772    3.7178   -8.7487 H        50   A61       0.2007
   1544 H8         33.3507    4.9883   -9.9176 H        50   A61       0.1553
   1545 H2         31.2807    1.5366   -4.9254 H        50   A61       0.0473
   1546 HO2'       28.9456    6.1699   -6.8391 H        50   A61       0.4186
   1547 H61        36.1206    2.5797   -6.6981 H        50   A61       0.4115
   1548 H62        35.7475    1.5995   -5.2980 H        50   A61       0.4115
   1549 P          27.2540    6.8760  -10.8380 P.3      51   U62       1.1662
   1550 OP1        27.8830    8.0660  -11.4670 O.co2    51   U62      -0.7760
   1551 OP2        25.8160    6.9230  -10.4560 O.co2    51   U62      -0.7760
   1552 O5'        27.4700    5.6120  -11.7900 O.3      51   U62      -0.4989
   1553 C5'        26.8500    4.3710  -11.4800 C.3      51   U62       0.0558
   1554 C4'        26.9310    3.4010  -12.6450 C.3      51   U62       0.1065
   1555 O4'        26.1970    3.9040  -13.7920 O.3      51   U62      -0.3548
   1556 C3'        28.3470    3.1520  -13.1390 C.3      51   U62       0.2022
   1557 O3'        28.6250    1.7460  -13.1740 O.3      51   U62      -0.5246
   1558 C2'        28.5280    4.0440  -14.3750 C.3      51   U62       0.0670
   1559 O2'        29.2290    3.4010  -15.4170 O.3      51   U62      -0.6139
   1560 C1'        27.0810    4.2250  -14.8440 C.3      51   U62       0.0674
   1561 N1         26.6520    5.4920  -15.4560 N.am     51   U62       0.0418
   1562 C2         26.2870    5.4620  -16.8010 C.2      51   U62       0.4687
   1563 O2         26.3490    4.4580  -17.4820 O.2      51   U62      -0.5477
   1564 N3         25.8400    6.6530  -17.3130 N.am     51   U62      -0.3549
   1565 C4         25.7250    7.8480  -16.6450 C.2      51   U62       0.5952
   1566 O4         25.2730    8.8270  -17.2380 O.2      51   U62      -0.5761
   1567 C5         26.1410    7.8090  -15.2710 C.2      51   U62      -0.3635
   1568 C6         26.5820    6.6600  -14.7370 C.2      51   U62      -0.1126
   1569 H5'        27.3508    3.9309  -10.6176 H        51   U62       0.0679
   1570 H5''       25.8028    4.5466  -11.2337 H        51   U62       0.0679
   1571 H4'        26.4945    2.4500  -12.3397 H        51   U62       0.1174
   1572 H3'        29.0051    3.5659  -12.3751 H        51   U62       0.0615
   1573 H2'        28.9859    4.9984  -14.1151 H        51   U62       0.0972
   1574 H1'        26.9211    3.4617  -15.6055 H        51   U62       0.1824
   1575 H3         25.5660    6.6515  -18.2851 H        51   U62       0.3154
   1576 H5         26.0989    8.7040  -14.6680 H        51   U62       0.1811
   1577 H6         26.8936    6.6533  -13.7030 H        51   U62       0.2188
   1578 HO2'       30.1158    3.1837  -15.1203 H        51   U62       0.4186
   1579 P          30.0590    1.2060  -13.6380 P.3      52   C63       1.1662
   1580 OP1        29.9580    0.6990  -15.0320 O.co2    52   C63      -0.7760
   1581 OP2        30.5470    0.3090  -12.5720 O.co2    52   C63      -0.7760
   1582 O5'        30.9840    2.4950  -13.6640 O.3      52   C63      -0.4989
   1583 C5'        31.7750    2.8190  -12.5520 C.3      52   C63       0.0558
   1584 C4'        33.2050    2.3910  -12.7700 C.3      52   C63       0.1065
   1585 O4'        33.8700    2.6550  -11.5180 O.3      52   C63      -0.3548
   1586 C3'        33.4570    0.9130  -13.0750 C.3      52   C63       0.2022
   1587 O3'        33.6320    0.7320  -14.4850 O.3      52   C63      -0.5246
   1588 C2'        34.7570    0.6430  -12.3380 C.3      52   C63       0.0670
   1589 O2'        35.8890    1.0560  -13.0650 O.3      52   C63      -0.6139
   1590 C1'        34.5960    1.5260  -11.1060 C.3      52   C63       0.0066
   1591 N1         33.8480    0.9040  -10.0020 N.am     52   C63      -0.0484
   1592 C2         34.5660    0.3140   -8.9590 C.2      52   C63       0.7538
   1593 O2         35.8060    0.3100   -9.0120 O.2      52   C63      -0.6252
   1594 N3         33.8930   -0.2390   -7.9260 N.2      52   C63      -0.7584
   1595 C4         32.5600   -0.2270   -7.9190 C.2      52   C63       0.8185
   1596 N4         31.9440   -0.7810   -6.8780 N.pl3    52   C63      -0.9530
   1597 C5         31.8030    0.3550   -8.9800 C.2      52   C63      -0.5215
   1598 C6         32.4800    0.9060   -9.9880 C.2      52   C63       0.0053
   1599 H5'        31.7448    3.8970  -12.3938 H        52   C63       0.0679
   1600 H5''       31.3793    2.3150  -11.6702 H        52   C63       0.0679
   1601 H4'        33.6511    3.0037  -13.5534 H        52   C63       0.1174
   1602 H3'        32.6496    0.2878  -12.6937 H        52   C63       0.0615
   1603 H2'        34.8355   -0.4074  -12.0575 H        52   C63       0.0972
   1604 H1'        35.5786    1.8358  -10.7501 H        52   C63       0.2029
   1605 H5         30.7231    0.3493   -8.9668 H        52   C63       0.1928
   1606 H6         31.9403    1.3607  -10.8056 H        52   C63       0.1958
   1607 H41        32.4854   -1.1909   -6.1303 H        52   C63       0.4234
   1608 H42        30.9350   -0.7917   -6.8354 H        52   C63       0.4234
   1609 HO2'       36.2502    0.3087  -13.5474 H        52   C63       0.4186
   1610 P          34.0310   -0.7160  -15.0970 P.3      53   U64       1.1662
   1611 OP1        34.6780   -0.4710  -16.4200 O.co2    53   U64      -0.7760
   1612 OP2        32.8320   -1.6030  -15.0210 O.co2    53   U64      -0.7760
   1613 O5'        35.1360   -1.2910  -14.1020 O.3      53   U64      -0.4989
   1614 C5'        36.5180   -1.2500  -14.4250 C.3      53   U64       0.0558
   1615 C4'        37.2830   -2.2370  -13.5750 C.3      53   U64       0.1065
   1616 O4'        37.1450   -1.8890  -12.1700 O.3      53   U64      -0.3548
   1617 C3'        36.8150   -3.6800  -13.6540 C.3      53   U64       0.2022
   1618 O3'        37.4130   -4.3420  -14.7680 O.3      53   U64      -0.5246
   1619 C2'        37.3490   -4.2420  -12.3460 C.3      53   U64       0.0670
   1620 O2'        38.7290   -4.5090  -12.4460 O.3      53   U64      -0.6139
   1621 C1'        37.1110   -3.0720  -11.3870 C.3      53   U64       0.0674
   1622 N1         35.7960   -3.1450  -10.7330 N.am     53   U64       0.0418
   1623 C2         35.6120   -4.0870   -9.7430 C.2      53   U64       0.4687
   1624 O2         36.4940   -4.8300   -9.3720 O.2      53   U64      -0.5477
   1625 N3         34.3470   -4.1230   -9.2050 N.am     53   U64      -0.3549
   1626 C4         33.2710   -3.3250   -9.5580 C.2      53   U64       0.5952
   1627 O4         32.1810   -3.4850   -9.0060 O.2      53   U64      -0.5761
   1628 C5         33.5530   -2.3710  -10.5790 C.2      53   U64      -0.3635
   1629 C6         34.7760   -2.3120  -11.1130 C.2      53   U64      -0.1126
   1630 H5'        36.9005   -0.2458  -14.2424 H        53   U64       0.0679
   1631 H5''       36.6505   -1.5010  -15.4774 H        53   U64       0.0679
   1632 H4'        38.3376   -2.1932  -13.8470 H        53   U64       0.1174
   1633 H3'        35.7275   -3.7409  -13.6954 H        53   U64       0.0615
   1634 H2'        36.7939   -5.1280  -12.0378 H        53   U64       0.0972
   1635 H1'        37.8990   -3.0422  -10.6345 H        53   U64       0.1824
   1636 H3         34.1853   -4.8028   -8.4757 H        53   U64       0.3154
   1637 H5         32.7802   -1.6979  -10.9198 H        53   U64       0.1811
   1638 H6         34.9697   -1.5750  -11.8783 H        53   U64       0.2188
   1639 HO2'       38.8706   -5.2430  -13.0483 H        53   U64       0.4186
   1640 P          36.6240   -5.5310  -15.5220 P.3      54   G65       1.1662
   1641 OP1        37.4120   -5.9190  -16.7200 O.co2    54   G65      -0.7760
   1642 OP2        35.2070   -5.1150  -15.6940 O.co2    54   G65      -0.7760
   1643 O5'        36.7260   -6.7540  -14.4990 O.3      54   G65      -0.4989
   1644 C5'        37.8960   -7.5640  -14.4830 C.3      54   G65       0.0558
   1645 C4'        37.8390   -8.5900  -13.3750 C.3      54   G65       0.1065
   1646 O4'        37.6410   -7.9220  -12.1030 O.3      54   G65      -0.3548
   1647 C3'        36.7250   -9.6230  -13.4120 C.3      54   G65       0.2022
   1648 O3'        37.0370  -10.7040  -14.2790 O.3      54   G65      -0.5246
   1649 C2'        36.7160  -10.0940  -11.9660 C.3      54   G65       0.0670
   1650 O2'        37.7960  -10.9590  -11.6910 O.3      54   G65      -0.6139
   1651 C1'        36.9250   -8.7770  -11.2250 C.3      54   G65       0.0191
   1652 N9         35.6610   -8.1300  -10.8910 N.ar     54   G65       0.0492
   1653 C8         35.0630   -7.0960  -11.5660 C.ar     54   G65       0.1374
   1654 N7         33.9350   -6.7200  -11.0320 N.ar     54   G65      -0.5709
   1655 C5         33.7750   -7.5600   -9.9370 C.ar     54   G65       0.1744
   1656 C6         32.7320   -7.6300   -8.9680 C.2      54   G65       0.4770
   1657 O6         31.7010   -6.9390   -8.8760 O.2      54   G65      -0.5597
   1658 N1         32.9740   -8.6290   -8.0360 N.am     54   G65      -0.4787
   1659 C2         34.0640   -9.4510   -8.0250 C.2      54   G65       0.7657
   1660 N2         34.0940  -10.3490   -7.0360 N.pl3    54   G65      -0.9672
   1661 N3         35.0440   -9.3980   -8.9130 N.2      54   G65      -0.6323
   1662 C4         34.8330   -8.4360   -9.8360 C.ar     54   G65       0.1222
   1663 H5'        37.9840   -8.0792  -15.4395 H        54   G65       0.0679
   1664 H5''       38.7693   -6.9283  -14.3374 H        54   G65       0.0679
   1665 H4'        38.7938   -9.1149  -13.3429 H        54   G65       0.1174
   1666 H3'        35.7734   -9.1650  -13.6819 H        54   G65       0.0615
   1667 H2'        35.7625  -10.5518  -11.7026 H        54   G65       0.0972
   1668 H1'        37.5053   -8.9488  -10.3185 H        54   G65       0.2006
   1669 H8         35.4841   -6.6400  -12.4498 H        54   G65       0.1640
   1670 H1         32.2879   -8.7586   -7.3063 H        54   G65       0.3424
   1671 H21        33.3421  -10.3838   -6.3625 H        54   G65       0.4364
   1672 H22        34.8686  -10.9929   -6.9619 H        54   G65       0.4364
   1673 HO2'       37.5332  -11.5967  -11.0232 H        54   G65       0.4186
   1674 P          35.8560  -11.6470  -14.8340 P.3      55   G66       1.1662
   1675 OP1        36.4860  -12.7600  -15.5970 O.co2    55   G66      -0.7760
   1676 OP2        34.8490  -10.7890  -15.5010 O.co2    55   G66      -0.7760
   1677 O5'        35.1980  -12.2610  -13.5180 O.3      55   G66      -0.4989
   1678 C5'        35.9720  -13.0650  -12.6360 C.3      55   G66       0.0558
   1679 C4'        35.1240  -13.5980  -11.5050 C.3      55   G66       0.1065
   1680 O4'        34.7570  -12.5390  -10.5830 O.3      55   G66      -0.3548
   1681 C3'        33.7910  -14.2190  -11.8740 C.3      55   G66       0.2022
   1682 O3'        33.9660  -15.5250  -12.4000 O.3      55   G66      -0.5246
   1683 C2'        33.0880  -14.2240  -10.5210 C.3      55   G66       0.0670
   1684 O2'        33.5520  -15.2460   -9.6600 O.3      55   G66      -0.6139
   1685 C1'        33.5220  -12.8680   -9.9610 C.3      55   G66       0.0191
   1686 N9         32.5550  -11.8230  -10.2720 N.ar     55   G66       0.0492
   1687 C8         32.5840  -10.9510  -11.3350 C.ar     55   G66       0.1374
   1688 N7         31.5650  -10.1350  -11.3550 N.ar     55   G66      -0.5709
   1689 C5         30.8220  -10.4870  -10.2360 C.ar     55   G66       0.1744
   1690 C6         29.6040   -9.9560   -9.7340 C.2      55   G66       0.4770
   1691 O6         28.9150   -9.0480  -10.1970 O.2      55   G66      -0.5597
   1692 N1         29.2020  -10.6040   -8.5730 N.am     55   G66      -0.4787
   1693 C2         29.8760  -11.6350   -7.9720 C.2      55   G66       0.7657
   1694 N2         29.3210  -12.1280   -6.8520 N.pl3    55   G66      -0.9672
   1695 N3         31.0110  -12.1470   -8.4320 N.2      55   G66      -0.6323
   1696 C4         31.4220  -11.5270   -9.5570 C.ar     55   G66       0.1222
   1697 H5'        36.3909  -13.9031  -13.1929 H        55   G66       0.0679
   1698 H5''       36.7842  -12.4661  -12.2241 H        55   G66       0.0679
   1699 H4'        35.7078  -14.3395  -10.9596 H        55   G66       0.1174
   1700 H3'        33.2558  -13.5875  -12.5831 H        55   G66       0.0615
   1701 H2'        32.0056  -14.2718  -10.6405 H        55   G66       0.0972
   1702 H1'        33.6575  -12.9386   -8.8818 H        55   G66       0.2006
   1703 H8         33.3688  -10.9421  -12.0768 H        55   G66       0.1640
   1704 H1         28.3461  -10.2909   -8.1377 H        55   G66       0.3424
   1705 H21        28.4575  -11.7379   -6.5023 H        55   G66       0.4364
   1706 H22        29.7673  -12.8887   -6.3598 H        55   G66       0.4364
   1707 HO2'       33.2839  -16.1012  -10.0041 H        55   G66       0.4186
   1708 P          32.7160  -16.2930  -13.0550 P.3      56   A67       1.1662
   1709 OP1        33.1680  -17.6680  -13.3980 O.co2    56   A67      -0.7760
   1710 OP2        32.0800  -15.4350  -14.1000 O.co2    56   A67      -0.7760
   1711 O5'        31.7030  -16.4330  -11.8420 O.3      56   A67      -0.4989
   1712 C5'        30.3520  -16.7870  -12.0570 C.3      56   A67       0.0558
   1713 C4'        29.6390  -16.8520  -10.7380 C.3      56   A67       0.1065
   1714 O4'        29.9450  -15.6560   -9.9730 O.3      56   A67      -0.3548
   1715 C3'        28.1310  -16.8840  -10.8540 C.3      56   A67       0.2022
   1716 O3'        27.6940  -18.2270  -10.9410 O.3      56   A67      -0.5246
   1717 C2'        27.7170  -16.2530   -9.5420 C.3      56   A67       0.0670
   1718 O2'        27.9070  -17.1790   -8.5050 O.3      56   A67      -0.6139
   1719 C1'        28.7550  -15.1340   -9.4170 C.3      56   A67       0.0394
   1720 N9         28.3920  -13.9490  -10.1980 N.ar     56   A67      -0.0251
   1721 C8         29.0620  -13.4310  -11.2780 C.ar     56   A67       0.2006
   1722 N7         28.4800  -12.3850  -11.8110 N.ar     56   A67      -0.6073
   1723 C5         27.3590  -12.1920  -11.0230 C.ar     56   A67       0.0515
   1724 C6         26.3330  -11.2420  -11.0680 C.ar     56   A67       0.7009
   1725 N6         26.2660  -10.2720  -11.9740 N.pl3    56   A67      -0.9019
   1726 N1         25.3620  -11.3220  -10.1370 N.ar     56   A67      -0.7615
   1727 C2         25.4280  -12.3020   -9.2250 C.ar     56   A67       0.5875
   1728 N3         26.3450  -13.2560   -9.0780 N.ar     56   A67      -0.6997
   1729 C4         27.2950  -13.1430  -10.0200 C.ar     56   A67       0.3053
   1730 H5'        30.3043  -17.7607  -12.5447 H        56   A67       0.0679
   1731 H5''       29.8764  -16.0388  -12.6911 H        56   A67       0.0679
   1732 H4'        29.9776  -17.7295  -10.1872 H        56   A67       0.1174
   1733 H3'        27.7848  -16.2970  -11.7047 H        56   A67       0.0615
   1734 H2'        26.6972  -15.8693   -9.5716 H        56   A67       0.0972
   1735 H1'        28.9068  -14.8695   -8.3705 H        56   A67       0.2007
   1736 H8         29.9847  -13.8475  -11.6542 H        56   A67       0.1553
   1737 H2         24.6219  -12.3204   -8.5065 H        56   A67       0.0473
   1738 H61        25.4411   -9.7800  -12.2863 H        56   A67       0.4115
   1739 H62        27.1396   -9.9953  -12.3986 H        56   A67       0.4115
   1740 HO2'       27.6457  -16.7834   -7.6702 H        56   A67       0.4186
   1741 P          26.7520  -18.6810  -12.1610 P.3      57   U68       1.1662
   1742 OP1        26.6160  -20.1550  -12.0620 O.co2    57   U68      -0.7760
   1743 OP2        27.2370  -18.0600  -13.4200 O.co2    57   U68      -0.7760
   1744 O5'        25.3370  -18.0380  -11.8230 O.3      57   U68      -0.4989
   1745 C5'        24.7850  -18.1500  -10.5200 C.3      57   U68       0.0558
   1746 C4'        23.6480  -17.1770  -10.3540 C.3      57   U68       0.1065
   1747 O4'        24.1410  -15.8140  -10.3020 O.3      57   U68      -0.3548
   1748 C3'        22.6610  -17.1620  -11.4950 C.3      57   U68       0.2022
   1749 O3'        21.7560  -18.2480  -11.3510 O.3      57   U68      -0.5246
   1750 C2'        21.9920  -15.8050  -11.3020 C.3      57   U68       0.0670
   1751 O2'        21.0080  -15.8300  -10.2870 O.3      57   U68      -0.6139
   1752 C1'        23.1710  -14.9400  -10.8430 C.3      57   U68       0.0674
   1753 N1         23.7980  -14.1820  -11.9310 N.am     57   U68       0.0418
   1754 C2         23.4000  -12.8730  -12.1220 C.2      57   U68       0.4687
   1755 O2         22.5670  -12.3340  -11.4290 O.2      57   U68      -0.5477
   1756 N3         24.0180  -12.2200  -13.1580 N.am     57   U68      -0.3549
   1757 C4         24.9740  -12.7330  -14.0000 C.2      57   U68       0.5952
   1758 O4         25.4470  -12.0210  -14.8850 O.2      57   U68      -0.5761
   1759 C5         25.3320  -14.0920  -13.7370 C.2      57   U68      -0.3635
   1760 C6         24.7460  -14.7530  -12.7370 C.2      57   U68      -0.1126
   1761 H5'        24.4156  -19.1646  -10.3712 H        57   U68       0.0679
   1762 H5''       25.5564  -17.9341   -9.7808 H        57   U68       0.0679
   1763 H4'        23.1191  -17.4008   -9.4276 H        57   U68       0.1174
   1764 H3'        23.1754  -17.2090  -12.4548 H        57   U68       0.0615
   1765 H2'        21.5775  -15.4359  -12.2401 H        57   U68       0.0972
   1766 H1'        22.8339  -14.2503  -10.0692 H        57   U68       0.1824
   1767 H3         23.7411  -11.2620  -13.3183 H        57   U68       0.3154
   1768 H5         26.0758  -14.5829  -14.3470 H        57   U68       0.1811
   1769 H6         25.0308  -15.7790  -12.5563 H        57   U68       0.2188
   1770 HO2'       20.7645  -14.9310  -10.0545 H        57   U68       0.4186
   1771 P          21.0420  -18.8620  -12.6460 P.3      58   A69       1.1662
   1772 OP1        19.7780  -19.5010  -12.2000 O.co2    58   A69      -0.7760
   1773 OP2        22.0610  -19.6640  -13.3550 O.co2    58   A69      -0.7760
   1774 O5'        20.6710  -17.5780  -13.5090 O.3      58   A69      -0.4989
   1775 C5'        19.9720  -17.6900  -14.7350 C.3      58   A69       0.0558
   1776 C4'        18.8470  -16.6850  -14.7740 C.3      58   A69       0.1065
   1777 O4'        17.8400  -17.0570  -13.8030 O.3      58   A69      -0.3548
   1778 C3'        19.2310  -15.2710  -14.3730 C.3      58   A69       0.2022
   1779 O3'        19.7690  -14.5480  -15.4700 O.3      58   A69      -0.5246
   1780 C2'        17.9030  -14.6690  -13.9230 C.3      58   A69       0.0670
   1781 O2'        17.1460  -14.1150  -14.9730 O.3      58   A69      -0.6139
   1782 C1'        17.1790  -15.8870  -13.3440 C.3      58   A69       0.0394
   1783 N9         17.1160  -15.9110  -11.8790 N.ar     58   A69      -0.0251
   1784 C8         17.6230  -16.8480  -11.0150 C.ar     58   A69       0.2006
   1785 N7         17.3480  -16.6060   -9.7580 N.ar     58   A69      -0.6073
   1786 C5         16.6270  -15.4200   -9.7960 C.ar     58   A69       0.0515
   1787 C6         16.0430  -14.6310   -8.7880 C.ar     58   A69       0.7009
   1788 N6         16.0870  -14.9300   -7.4910 N.pl3    58   A69      -0.9019
   1789 N1         15.3960  -13.5120   -9.1640 N.ar     58   A69      -0.7615
   1790 C2         15.3410  -13.2120  -10.4610 C.ar     58   A69       0.5875
   1791 N3         15.8470  -13.8700  -11.4980 N.ar     58   A69      -0.6997
   1792 C4         16.4840  -14.9790  -11.0930 C.ar     58   A69       0.3053
   1793 H5'        20.6570  -17.4988  -15.5610 H        58   A69       0.0679
   1794 H5''       19.5629  -18.6960  -14.8286 H        58   A69       0.0679
   1795 H4'        18.4046  -16.6730  -15.7701 H        58   A69       0.1174
   1796 H3'        19.9400  -15.2897  -13.5453 H        58   A69       0.0615
   1797 H2'        18.0706  -13.9244  -13.1448 H        58   A69       0.0972
   1798 H1'        16.1599  -15.8954  -13.7307 H        58   A69       0.2007
   1799 H8         18.1949  -17.7043  -11.3408 H        58   A69       0.1553
   1800 H2         14.8090  -12.3041  -10.7039 H        58   A69       0.0473
   1801 H61        16.5632  -15.7651   -7.1811 H        58   A69       0.4115
   1802 H62        15.6442  -14.3217   -6.8172 H        58   A69       0.4115
   1803 HO2'       17.6054  -13.3521  -15.3314 H        58   A69       0.4186
   1804 P          21.0550  -13.6230  -15.2450 P.3      59   A70       1.1662
   1805 OP1        21.4530  -13.0170  -16.5430 O.co2    59   A70      -0.7760
   1806 OP2        22.0430  -14.4200  -14.4650 O.co2    59   A70      -0.7760
   1807 O5'        20.5040  -12.4400  -14.3400 O.3      59   A70      -0.4989
   1808 C5'        19.7270  -11.4130  -14.9230 C.3      59   A70       0.0558
   1809 C4'        19.2530  -10.4520  -13.8710 C.3      59   A70       0.1065
   1810 O4'        18.3890  -11.1480  -12.9410 O.3      59   A70      -0.3548
   1811 C3'        20.3080   -9.8200  -12.9870 C.3      59   A70       0.2022
   1812 O3'        20.9040   -8.7170  -13.6670 O.3      59   A70      -0.5246
   1813 C2'        19.4590   -9.3650  -11.8040 C.3      59   A70       0.0670
   1814 O2'        18.7260   -8.1920  -12.0970 O.3      59   A70      -0.6139
   1815 C1'        18.4660  -10.5230  -11.6760 C.3      59   A70       0.0394
   1816 N9         18.8260  -11.5420  -10.6960 N.ar     59   A70      -0.0251
   1817 C8         19.5090  -12.7120  -10.9120 C.ar     59   A70       0.2006
   1818 N7         19.6600  -13.4410   -9.8340 N.ar     59   A70      -0.6073
   1819 C5         19.0370  -12.6980   -8.8440 C.ar     59   A70       0.0515
   1820 C6         18.8460  -12.9280   -7.4820 C.ar     59   A70       0.7009
   1821 N6         19.2840  -14.0200   -6.8580 N.pl3    59   A70      -0.9019
   1822 N1         18.1790  -11.9890   -6.7700 N.ar     59   A70      -0.7615
   1823 C2         17.7420  -10.9000   -7.4040 C.ar     59   A70       0.5875
   1824 N3         17.8610  -10.5720   -8.6870 N.ar     59   A70      -0.6997
   1825 C4         18.5260  -11.5250   -9.3590 C.ar     59   A70       0.3053
   1826 H5'        18.8636  -11.8548  -15.4205 H        59   A70       0.0679
   1827 H5''       20.3299  -10.8767  -15.6558 H        59   A70       0.0679
   1828 H4'        18.6809   -9.6596  -14.3536 H        59   A70       0.1174
   1829 H3'        21.0578  -10.5493  -12.6803 H        59   A70       0.0615
   1830 H2'        20.0584   -9.2486  -10.9011 H        59   A70       0.0972
   1831 H1'        17.4856  -10.1201  -11.4217 H        59   A70       0.2007
   1832 H8         19.8870  -13.0048  -11.8804 H        59   A70       0.1553
   1833 H2         17.2177  -10.1838   -6.7887 H        59   A70       0.0473
   1834 HO2'       17.9026   -8.1970  -11.6034 H        59   A70       0.4186
   1835 H61        18.6966  -13.9173   -6.0428 H        59   A70       0.4115
   1836 H62        19.9708  -14.7152   -7.1134 H        59   A70       0.4115
   1837 P          22.4600   -8.3600  -13.4300 P.3      60   U71       1.1662
   1838 OP1        22.8440   -7.4760  -14.5520 O.co2    60   U71      -0.7760
   1839 OP2        23.2510   -9.5890  -13.1620 O.co2    60   U71      -0.7760
   1840 O5'        22.4500   -7.4820  -12.1040 O.3      60   U71      -0.4989
   1841 C5'        21.7640   -6.2380  -12.0960 C.3      60   U71       0.0558
   1842 C4'        21.4460   -5.8050  -10.6870 C.3      60   U71       0.1065
   1843 O4'        20.5150   -6.7280  -10.0680 O.3      60   U71      -0.3548
   1844 C3'        22.6120   -5.7270   -9.7250 C.3      60   U71       0.2022
   1845 O3'        23.2680   -4.4830   -9.9370 O.3      60   U71      -0.5246
   1846 C2'        21.8990   -5.7960   -8.3750 C.3      60   U71       0.0670
   1847 O2'        21.3370   -4.5640   -7.9790 O.3      60   U71      -0.6139
   1848 C1'        20.7570   -6.7720   -8.6760 C.3      60   U71       0.0674
   1849 N1         21.0610   -8.1590   -8.3070 N.am     60   U71       0.0418
   1850 C2         20.7790   -8.5440   -7.0170 C.2      60   U71       0.4687
   1851 O2         20.2780   -7.7850   -6.2010 O.2      60   U71      -0.5477
   1852 N3         21.1040   -9.8430   -6.7140 N.am     60   U71      -0.3549
   1853 C4         21.6720  -10.7680   -7.5580 C.2      60   U71       0.5952
   1854 O4         21.9380  -11.8920   -7.1330 O.2      60   U71      -0.5761
   1855 C5         21.9210  -10.2920   -8.8820 C.2      60   U71      -0.3635
   1856 C6         21.6130   -9.0350   -9.2030 C.2      60   U71      -0.1126
   1857 H5'        22.3916   -5.4820  -12.5680 H        60   U71       0.0679
   1858 H5''       20.8360   -6.3364  -12.6592 H        60   U71       0.0679
   1859 H4'        20.9742   -4.8234  -10.7306 H        60   U71       0.1174
   1860 H3'        23.2953   -6.5657   -9.8581 H        60   U71       0.0615
   1861 H2'        22.5592   -6.1916   -7.6031 H        60   U71       0.0972
   1862 H1'        19.8608   -6.4488   -8.1464 H        60   U71       0.1824
   1863 H3         20.9051  -10.1513   -5.7730 H        60   U71       0.3154
   1864 H5         22.3573  -10.9483   -9.6205 H        60   U71       0.1811
   1865 H6         21.8066   -8.6944  -10.2094 H        60   U71       0.2188
   1866 HO2'       22.0390   -3.9324   -7.8060 H        60   U71       0.4186
   1867 P          24.7430   -4.2360   -9.3530 P.3      61   G72       1.1662
   1868 OP1        25.1970   -2.9220   -9.8550 O.co2    61   G72      -0.7760
   1869 OP2        25.5670   -5.4410   -9.6050 O.co2    61   G72      -0.7760
   1870 O5'        24.5080   -4.1230   -7.7850 O.3      61   G72      -0.4989
   1871 C5'        25.5750   -3.8130   -6.9090 C.3      61   G72       0.0558
   1872 C4'        25.4610   -4.6320   -5.6490 C.3      61   G72       0.1065
   1873 O4'        26.5750   -4.2870   -4.7910 O.3      61   G72      -0.3548
   1874 C3'        24.2070   -4.3420   -4.8340 C.3      61   G72       0.2022
   1875 O3'        23.1560   -5.3230   -4.7430 O.3      61   G72      -0.5246
   1876 C2'        24.5990   -3.3360   -3.7600 C.3      61   G72       0.0670
   1877 O2'        24.0160   -3.6140   -2.5000 O.3      61   G72      -0.6139
   1878 C1'        26.1210   -3.5260   -3.6880 C.3      61   G72       0.0191
   1879 N9         26.9200   -2.3050   -3.6100 N.ar     61   G72       0.0492
   1880 C8         26.4820   -1.0110   -3.4760 C.ar     61   G72       0.1374
   1881 N7         27.4580   -0.1540   -3.3370 N.ar     61   G72      -0.5709
   1882 C5         28.6080   -0.9270   -3.4090 C.ar     61   G72       0.1744
   1883 C6         29.9800   -0.5590   -3.3170 C.2      61   G72       0.4770
   1884 O6         30.4720    0.5650   -3.1500 O.2      61   G72      -0.5597
   1885 N1         30.8150   -1.6660   -3.4360 N.am     61   G72      -0.4787
   1886 C2         30.3930   -2.9630   -3.6210 C.2      61   G72       0.7657
   1887 N2         31.3570   -3.9020   -3.7010 N.pl3    61   G72      -0.9672
   1888 N3         29.1200   -3.3150   -3.7140 N.2      61   G72      -0.6323
   1889 C4         28.2910   -2.2550   -3.5960 C.ar     61   G72       0.1222
   1890 H5'        26.5220   -4.0365   -7.4003 H        61   G72       0.0679
   1891 H5''       25.5396   -2.7533   -6.6563 H        61   G72       0.0679
   1892 H4'        25.5019   -5.6930   -5.8954 H        61   G72       0.1174
   1893 H3'        23.7227   -3.6540   -5.5270 H        61   G72       0.0615
   1894 H2'        24.3551   -2.3225   -4.0786 H        61   G72       0.0972
   1895 H1'        26.3307   -4.1057   -2.7891 H        61   G72       0.2006
   1896 H8         25.4391   -0.7306   -3.4846 H        61   G72       0.1640
   1897 H1         31.8106   -1.5047   -3.3823 H        61   G72       0.3424
   1898 H21        32.3286   -3.6358   -3.6279 H        61   G72       0.4364
   1899 H22        31.1077   -4.8717   -3.8340 H        61   G72       0.4364
   1900 HO2'       24.2024   -4.5231   -2.2542 H        61   G72       0.4186
   1901 P          22.8380   -6.0850   -3.3500 P.3      62   C73       1.1662
   1902 OP1        21.4380   -5.7800   -2.9810 O.co2    62   C73      -0.7760
   1903 OP2        23.9180   -5.8620   -2.3600 O.co2    62   C73      -0.7760
   1904 O5'        22.8820   -7.6210   -3.7730 O.3      62   C73      -0.4989
   1905 C5'        22.4900   -8.6490   -2.8780 C.3      62   C73       0.0558
   1906 C4'        23.4530   -9.8060   -2.9670 C.3      62   C73       0.1065
   1907 O4'        23.4820  -10.3060   -4.3310 O.3      62   C73      -0.3548
   1908 C3'        24.8970   -9.4490   -2.6670 C.3      62   C73       0.2022
   1909 O3'        25.1240   -9.4890   -1.2670 O.3      62   C73      -0.5246
   1910 C2'        25.6640  -10.5320   -3.4180 C.3      62   C73       0.0670
   1911 O2'        25.7430  -11.7480   -2.7240 O.3      62   C73      -0.6139
   1912 C1'        24.7970  -10.7210   -4.6610 C.3      62   C73       0.0066
   1913 N1         25.2690   -9.9110   -5.7890 N.am     62   C73      -0.0484
   1914 C2         26.2360  -10.4410   -6.6320 C.2      62   C73       0.7538
   1915 O2         26.6680  -11.5660   -6.3950 O.2      62   C73      -0.6252
   1916 N3         26.6820   -9.7130   -7.6790 N.2      62   C73      -0.7584
   1917 C4         26.2000   -8.4900   -7.8840 C.2      62   C73       0.8185
   1918 N4         26.6730   -7.7960   -8.9080 N.pl3    62   C73      -0.9530
   1919 C5         25.2080   -7.9210   -7.0360 C.2      62   C73      -0.5215
   1920 C6         24.7740   -8.6600   -6.0090 C.2      62   C73       0.0053
   1921 H5'        22.4873   -8.2594   -1.8600 H        62   C73       0.0679
   1922 H5''       21.4881   -8.9915   -3.1369 H        62   C73       0.0679
   1923 H4'        23.1285  -10.6010   -2.2956 H        62   C73       0.1174
   1924 H3'        25.1380   -8.4635   -3.0655 H        62   C73       0.0615
   1925 H2'        26.6584  -10.1798   -3.6921 H        62   C73       0.0972
   1926 H1'        24.7883  -11.7734   -4.9445 H        62   C73       0.2029
   1927 H5         24.8201   -6.9291   -7.2153 H        62   C73       0.1928
   1928 H6         24.0215   -8.2603   -5.3453 H        62   C73       0.1958
   1929 H41        27.3782   -8.1988   -9.5084 H        62   C73       0.4234
   1930 H42        26.3285   -6.8639   -9.0885 H        62   C73       0.4234
   1931 HO2'       26.5600  -11.7773   -2.2208 H        62   C73       0.4186
   1932 P          26.5160   -8.9590   -0.6650 P.3      63   C74       1.1662
   1933 OP1        26.5040   -9.2440    0.7900 O.co2    63   C74      -0.7760
   1934 OP2        26.7480   -7.5690   -1.1290 O.co2    63   C74      -0.7760
   1935 O5'        27.6080   -9.9210   -1.3100 O.3      63   C74      -0.4989
   1936 C5'        27.8200  -11.2300   -0.8000 C.3      63   C74       0.0558
   1937 C4'        29.0790  -11.8210   -1.3870 C.3      63   C74       0.1065
   1938 O4'        28.9270  -11.9890   -2.8240 O.3      63   C74      -0.3548
   1939 C3'        30.3150  -10.9510   -1.2590 C.3      63   C74       0.2022
   1940 O3'        30.9200  -11.1050    0.0070 O.3      63   C74      -0.5246
   1941 C2'        31.2050  -11.4900   -2.3660 C.3      63   C74       0.0670
   1942 O2'        31.8780  -12.6760   -1.9850 O.3      63   C74      -0.6139
   1943 C1'        30.1750  -11.7660   -3.4650 C.3      63   C74       0.0066
   1944 N1         30.0200  -10.6190   -4.3640 N.am     63   C74      -0.0484
   1945 C2         31.0780  -10.2760   -5.2100 C.2      63   C74       0.7538
   1946 O2         32.1200  -10.9550   -5.1760 O.2      63   C74      -0.6252
   1947 N3         30.9440   -9.2140   -6.0400 N.2      63   C74      -0.7584
   1948 C4         29.8140   -8.5070   -6.0410 C.2      63   C74       0.8185
   1949 N4         29.7250   -7.4750   -6.8750 N.pl3    63   C74      -0.9530
   1950 C5         28.7220   -8.8330   -5.1860 C.2      63   C74      -0.5215
   1951 C6         28.8650   -9.8890   -4.3740 C.2      63   C74       0.0053
   1952 H5'        27.9166  -11.1823    0.2847 H        63   C74       0.0679
   1953 H5''       26.9698  -11.8608   -1.0595 H        63   C74       0.0679
   1954 H4'        29.2708  -12.7909   -0.9282 H        63   C74       0.1174
   1955 H3'        30.0679   -9.9051   -1.4410 H        63   C74       0.0615
   1956 H2'        31.9176  -10.7312   -2.6894 H        63   C74       0.0972
   1957 H1'        30.4648  -12.6493   -4.0342 H        63   C74       0.2029
   1958 H5         27.8126   -8.2504   -5.1922 H        63   C74       0.1928
   1959 H6         28.0545  -10.1677   -3.7169 H        63   C74       0.1958
   1960 H41        30.5002   -7.2472   -7.4810 H        63   C74       0.4234
   1961 H42        28.8822   -6.9191   -6.9024 H        63   C74       0.4234
   1962 HO2'       32.8261  -12.5262   -2.0024 H        63   C74       0.4186
   1963 P          31.8130   -9.9210    0.5920 P.3      64   A75       1.1662
   1964 OP1        32.2350  -10.3510    1.9510 O.co2    64   A75      -0.7760
   1965 OP2        31.0810   -8.6360    0.4100 O.co2    64   A75      -0.7760
   1966 O5'        33.0810   -9.9020   -0.3700 O.3      64   A75      -0.4989
   1967 C5'        34.0620  -10.9320   -0.2970 C.3      64   A75       0.0558
   1968 C4'        35.1650  -10.6680   -1.2890 C.3      64   A75       0.1065
   1969 O4'        34.6280  -10.7630   -2.6350 O.3      64   A75      -0.3548
   1970 C3'        35.7600   -9.2720   -1.2370 C.3      64   A75       0.2022
   1971 O3'        36.7580   -9.1660   -0.2410 O.3      64   A75      -0.5246
   1972 C2'        36.3480   -9.1340   -2.6290 C.3      64   A75       0.0670
   1973 O2'        37.5510   -9.8530   -2.7820 O.3      64   A75      -0.6139
   1974 C1'        35.2580   -9.7970   -3.4640 C.3      64   A75       0.0394
   1975 N9         34.2590   -8.8150   -3.8590 N.ar     64   A75      -0.0251
   1976 C8         33.0220   -8.5780   -3.3160 C.ar     64   A75       0.2006
   1977 N7         32.3660   -7.6080   -3.9030 N.ar     64   A75      -0.6073
   1978 C5         33.2360   -7.1790   -4.8970 C.ar     64   A75       0.0515
   1979 C6         33.1330   -6.1790   -5.8690 C.ar     64   A75       0.7009
   1980 N6         32.0650   -5.4000   -6.0050 N.pl3    64   A75      -0.9019
   1981 N1         34.1770   -6.0070   -6.7110 N.ar     64   A75      -0.7615
   1982 C2         35.2460   -6.8020   -6.5730 C.ar     64   A75       0.5875
   1983 N3         35.4590   -7.7800   -5.6960 N.ar     64   A75      -0.6997
   1984 C4         34.4020   -7.9160   -4.8790 C.ar     64   A75       0.3053
   1985 H5'        34.4810  -10.9599    0.7088 H        64   A75       0.0679
   1986 H5''       33.5961  -11.8915   -0.5213 H        64   A75       0.0679
   1987 H4'        35.9562  -11.4064   -1.1593 H        64   A75       0.1174
   1988 H3'        34.9788   -8.5290   -1.0764 H        64   A75       0.0615
   1989 H2'        36.4750   -8.0867   -2.9032 H        64   A75       0.0972
   1990 H1'        35.6902  -10.2745   -4.3434 H        64   A75       0.2007
   1991 H8         32.6258   -9.1388   -2.4823 H        64   A75       0.1553
   1992 H2         36.0492   -6.6241   -7.2728 H        64   A75       0.0473
   1993 HO2'       38.1079   -9.4122   -3.4279 H        64   A75       0.4186
   1994 H61        32.0497   -4.9781   -6.9226 H        64   A75       0.4115
   1995 H62        31.3665   -5.2507   -5.2909 H        64   A75       0.4115
   1996 P          37.1360   -7.7230    0.3400 P.3      65   G76       1.1662
   1997 OP1        38.1030   -7.9430    1.4370 O.co2    65   G76      -0.7760
   1998 OP2        35.8820   -6.9870    0.6060 O.co2    65   G76      -0.7760
   1999 O5'        37.8740   -7.0040   -0.8730 O.3      65   G76      -0.4989
   2000 C5'        38.9580   -7.6380   -1.5330 C.3      65   G76       0.0558
   2001 C4'        39.3410   -6.8720   -2.7720 C.3      65   G76       0.1065
   2002 O4'        38.2450   -6.8700   -3.7250 O.3      65   G76      -0.3548
   2003 C3'        39.6580   -5.4020   -2.5660 C.3      65   G76       0.2022
   2004 O3'        40.9940   -5.2530   -2.1070 O.3      65   G76      -0.5246
   2005 C2'        39.4650   -4.8390   -3.9730 C.3      65   G76       0.0670
   2006 O2'        40.5620   -5.0340   -4.8420 O.3      65   G76      -0.6139
   2007 C1'        38.2740   -5.6620   -4.4720 C.3      65   G76       0.0191
   2008 N9         37.0140   -4.9510   -4.2750 N.ar     65   G76       0.0492
   2009 C8         36.1240   -5.0870   -3.2370 C.ar     65   G76       0.1374
   2010 N7         35.0970   -4.2890   -3.3360 N.ar     65   G76      -0.5709
   2011 C5         35.3220   -3.5900   -4.5120 C.ar     65   G76       0.1744
   2012 C6         34.5540   -2.5870   -5.1410 C.2      65   G76       0.4770
   2013 O6         33.4870   -2.0930   -4.7720 O.2      65   G76      -0.5597
   2014 N1         35.1450   -2.1520   -6.3210 N.am     65   G76      -0.4787
   2015 C2         36.3240   -2.6210   -6.8290 C.2      65   G76       0.7657
   2016 N2         36.7230   -2.0800   -7.9840 N.pl3    65   G76      -0.9672
   2017 N3         37.0560   -3.5520   -6.2500 N.2      65   G76      -0.6323
   2018 C4         36.4970   -3.9900   -5.1030 C.ar     65   G76       0.1222
   2019 H5'        39.8133   -7.6803   -0.8587 H        65   G76       0.0679
   2020 H5''       38.6678   -8.6512   -1.8110 H        65   G76       0.0679
   2021 H4'        40.2035   -7.3557   -3.2306 H        65   G76       0.1174
   2022 H3'        38.9552   -4.9482   -1.8672 H        65   G76       0.0615
   2023 H2'        39.2022   -3.7822   -3.9256 H        65   G76       0.0972
   2024 H1'        38.4041   -5.8893   -5.5301 H        65   G76       0.2006
   2025 H8         36.2608   -5.7832   -2.4227 H        65   G76       0.1640
   2026 H1         34.6659   -1.4331   -6.8442 H        65   G76       0.3424
   2027 H21        36.1620   -1.3673   -8.4283 H        65   G76       0.4364
   2028 H22        37.5856   -2.3838   -8.4126 H        65   G76       0.4364
   2029 HO2'       41.3112   -4.5196   -4.5327 H        65   G76       0.4186
   2030 P          41.3520   -4.1020   -1.0470 P.3      66   C77       1.1662
   2031 OP1        42.8270   -4.0390   -0.9770 O.co2    66   C77      -0.7760
   2032 OP2        40.5770   -4.3310    0.1940 O.co2    66   C77      -0.7760
   2033 O5'        40.8470   -2.7640   -1.7480 O.3      66   C77      -0.4989
   2034 C5'        41.4790   -2.2730   -2.9290 C.3      66   C77       0.0558
   2035 C4'        40.7150   -1.0900   -3.4840 C.3      66   C77       0.1065
   2036 O4'        39.4030   -1.5350   -3.9000 O.3      66   C77      -0.3548
   2037 C3'        40.4500    0.0480   -2.5070 C.3      66   C77       0.2022
   2038 O3'        41.5530    0.9610   -2.4990 O.3      66   C77      -0.5246
   2039 C2'        39.1960    0.6950   -3.0860 C.3      66   C77       0.0670
   2040 O2'        39.4820    1.6110   -4.1190 O.3      66   C77      -0.6139
   2041 C1'        38.4590   -0.5080   -3.6750 C.3      66   C77       0.0066
   2042 N1         37.3670   -1.0410   -2.8440 N.am     66   C77      -0.0484
   2043 C2         36.0840   -0.5410   -3.0390 C.2      66   C77       0.7538
   2044 O2         35.9150    0.3560   -3.8740 O.2      66   C77      -0.6252
   2045 N3         35.0570   -1.0450   -2.3180 N.2      66   C77      -0.7584
   2046 C4         35.2800   -2.0060   -1.4260 C.2      66   C77       0.8185
   2047 N4         34.2360   -2.4790   -0.7520 N.pl3    66   C77      -0.9530
   2048 C5         36.5850   -2.5250   -1.1890 C.2      66   C77      -0.5215
   2049 C6         37.5920   -2.0160   -1.9130 C.2      66   C77       0.0053
   2050 H5'        42.4961   -1.9630   -2.6894 H        66   C77       0.0679
   2051 H5''       41.5103   -3.0651   -3.6771 H        66   C77       0.0679
   2052 H4'        41.2481   -0.6977   -4.3500 H        66   C77       0.1174
   2053 H3'        40.2595   -0.3379   -1.5056 H        66   C77       0.0615
   2054 H2'        38.6046    1.1667   -2.3013 H        66   C77       0.0972
   2055 H1'        38.0412   -0.2131   -4.6376 H        66   C77       0.2029
   2056 H5         36.7566   -3.2983   -0.4548 H        66   C77       0.1928
   2057 H6         38.5963   -2.3819   -1.7582 H        66   C77       0.1958
   2058 H41        33.3128   -2.1076   -0.9250 H        66   C77       0.4234
   2059 H42        34.3661   -3.2097   -0.0670 H        66   C77       0.4234
   2060 HO2'       39.7881    2.4376   -3.7387 H        66   C77       0.4186
   2061 P          41.7350    2.0090   -1.2840 P.3      67   G78       1.1662
   2062 OP1        40.7980    3.1410   -1.5060 O.co2    67   G78      -0.7760
   2063 OP2        43.1810    2.2850   -1.1230 O.co2    67   G78      -0.7760
   2064 O5'        41.2590    1.2000   -0.0010 O.3      67   G78      -0.4989
   2065 C5'        41.8050    1.4760    1.2810 C.3      67   G78       0.0558
   2066 C4'        40.9450    0.8430    2.3450 C.3      67   G78       0.1065
   2067 O4'        39.6590    1.5080    2.3430 O.3      67   G78      -0.3548
   2068 C3'        40.6530   -0.6340    2.1230 C.3      67   G78       0.2022
   2069 O3'        41.7360   -1.4560    2.6100 O.3      67   G78      -0.5246
   2070 C2'        39.2500   -0.8310    2.6990 C.3      67   G78       0.0670
   2071 O2'        39.2030   -1.1480    4.0720 O.3      67   G78      -0.6139
   2072 C1'        38.6270    0.5580    2.5110 C.3      67   G78       0.0191
   2073 N9         37.6400    0.7490    1.4480 N.ar     67   G78       0.0492
   2074 C8         37.8480    1.2690    0.1920 C.ar     67   G78       0.1374
   2075 N7         36.7470    1.3990   -0.4960 N.ar     67   G78      -0.5709
   2076 C5         35.7570    0.9200    0.3480 C.ar     67   G78       0.1744
   2077 C6         34.3600    0.8160    0.1610 C.2      67   G78       0.4770
   2078 O6         33.6850    1.1430   -0.8180 O.2      67   G78      -0.5597
   2079 N1         33.7370    0.2670    1.2700 N.am     67   G78      -0.4787
   2080 C2         34.3710   -0.1260    2.4160 C.2      67   G78       0.7657
   2081 N2         33.5960   -0.6350    3.3780 N.pl3    67   G78      -0.9672
   2082 N3         35.6680   -0.0300    2.6080 N.2      67   G78      -0.6323
   2083 C4         36.2960    0.4970    1.5420 C.ar     67   G78       0.1222
   2084 H5'        41.8385    2.5544    1.4362 H        67   G78       0.0679
   2085 H5''       42.8145    1.0692    1.3408 H        67   G78       0.0679
   2086 H4'        41.4184    0.9752    3.3179 H        67   G78       0.1174
   2087 H3'        40.5858   -0.7921    1.0466 H        67   G78       0.0615
   2088 H2'        38.7026   -1.5740    2.1191 H        67   G78       0.0972
   2089 H1'        38.1270    0.8041    3.4478 H        67   G78       0.2006
   2090 H8         38.8223    1.5417   -0.1860 H        67   G78       0.1640
   2091 H1         32.7349    0.1476    1.2287 H        67   G78       0.3424
   2092 H21        32.5990   -0.7115    3.2357 H        67   G78       0.4364
   2093 H22        34.0071   -0.9433    4.2475 H        67   G78       0.4364
   2094 HO2'       39.5853   -2.0171    4.2135 H        67   G78       0.4186
   2095 P          41.9130   -1.7890    4.1950 P.3      68   U79       1.1662
   2096 OP1        43.3250   -2.2170    4.3280 O.co2    68   U79      -0.7760
   2097 OP2        40.8430   -2.6910    4.6940 O.co2    68   U79      -0.7760
   2098 O5'        41.7960   -0.3830    4.9410 O.3      68   U79      -0.4989
   2099 C5'        41.1240   -0.2670    6.1990 C.3      68   U79       0.0558
   2100 C4'        41.7480    0.8300    7.0460 C.3      68   U79       0.1065
   2101 O4'        43.0630    0.4080    7.5020 O.3      68   U79      -0.3548
   2102 C3'        41.9780    2.1830    6.3760 C.3      68   U79       0.2022
   2103 O3'        40.8030    2.9940    6.4250 O.3      68   U79      -0.5246
   2104 C2'        43.1100    2.7750    7.2110 C.3      68   U79       0.0670
   2105 O2'        42.6540    3.3980    8.4000 O.3      68   U79      -0.6139
   2106 C1'        43.9370    1.5280    7.5420 C.3      68   U79       0.0674
   2107 H5'        41.1975   -1.2150    6.7319 H        68   U79       0.0679
   2108 H5''       40.0737   -0.0331    6.0251 H        68   U79       0.0679
   2109 H4'        41.1172    0.9856    7.9212 H        68   U79       0.1174
   2110 H3'        42.3005    2.0449    5.3440 H        68   U79       0.0615
   2111 H2'        43.6970    3.4743    6.6156 H        68   U79       0.0972
   2112 H1'        44.7327    1.4044    6.8074 H        68   U79       0.1824
   2113 H1''       44.3671    1.6247    8.5389 H        68   U79       0.0000
   2114 HO2'       42.1957    4.2123    8.1797 H        68   U79       0.4186
   2115 P          40.8970    4.5700    6.0960 P.3      69   A80       1.1662
   2116 OP1        41.2980    5.2610    7.3530 O.co2    69   A80      -0.7760
   2117 OP2        39.6490    4.9810    5.4050 O.co2    69   A80      -0.7760
   2118 O5'        42.0720    4.6890    5.0290 O.3      69   A80      -0.4989
   2119 C5'        41.8770    4.2300    3.7070 C.3      69   A80       0.0558
   2120 C4'        41.9450    5.3730    2.7250 C.3      69   A80       0.1065
   2121 O4'        41.2840    4.8990    1.5250 O.3      69   A80      -0.3548
   2122 C3'        41.2090    6.6530    3.1260 C.3      69   A80       0.2022
   2123 O3'        42.1260    7.6040    3.6930 O.3      69   A80      -0.5246
   2124 C2'        40.6600    7.1570    1.7940 C.3      69   A80       0.0670
   2125 O2'        41.6130    7.8600    1.0210 O.3      69   A80      -0.6139
   2126 C1'        40.3260    5.8440    1.0910 C.3      69   A80       0.0394
   2127 N9         38.9910    5.3160    1.3940 N.ar     69   A80      -0.0251
   2128 C8         38.6220    4.4180    2.3720 C.ar     69   A80       0.2006
   2129 N7         37.3410    4.1410    2.3780 N.ar     69   A80      -0.6073
   2130 C5         36.8310    4.9090    1.3410 C.ar     69   A80       0.0515
   2131 C6         35.5320    5.0700    0.8340 C.ar     69   A80       0.7009
   2132 N6         34.4620    4.4440    1.3230 N.pl3    69   A80      -0.9019
   2133 N1         35.3650    5.9110   -0.2110 N.ar     69   A80      -0.7615
   2134 C2         36.4360    6.5400   -0.7030 C.ar     69   A80       0.5875
   2135 N3         37.7040    6.4740   -0.3130 N.ar     69   A80      -0.6997
   2136 C4         37.8360    5.6340    0.7260 C.ar     69   A80       0.3053
   2137 H5'        42.6525    3.5038    3.4634 H        69   A80       0.0679
   2138 H5''       40.9006    3.7510    3.6335 H        69   A80       0.0679
   2139 H4'        42.9869    5.6037    2.5027 H        69   A80       0.1174
   2140 H3'        40.3989    6.4331    3.8213 H        69   A80       0.0615
   2141 H2'        39.7625    7.7568    1.9450 H        69   A80       0.0972
   2142 H1'        40.4207    5.9807    0.0138 H        69   A80       0.2007
   2143 H8         39.3232    3.9829    3.0687 H        69   A80       0.1553
   2144 H2         36.2430    7.1969   -1.5383 H        69   A80       0.0473
   2145 H61        33.7014    4.4096    0.6593 H        69   A80       0.4115
   2146 H62        34.4168    4.0490    2.2515 H        69   A80       0.4115
   2147 HO2'       41.8298    8.6882    1.4553 H        69   A80       0.4186
   2148 P          41.5940    8.7750    4.6770 P.3      70   G81       1.1662
   2149 OP1        42.7580    9.6500    4.9670 O.co2    70   G81      -0.7760
   2150 OP2        40.8390    8.1560    5.8090 O.co2    70   G81      -0.7760
   2151 O5'        40.5980    9.6370    3.7810 O.3      70   G81      -0.4989
   2152 C5'        41.0840   10.7110    2.9960 C.3      70   G81       0.0558
   2153 C4'        39.9400   11.5480    2.4840 C.3      70   G81       0.1065
   2154 O4'        39.1910   10.8050    1.4780 O.3      70   G81      -0.3548
   2155 C3'        38.8800   11.9280    3.5050 C.3      70   G81       0.2022
   2156 O3'        39.2620   13.0180    4.3310 O.3      70   G81      -0.5246
   2157 C2'        37.7080   12.2620    2.5920 C.3      70   G81       0.0670
   2158 O2'        37.8670   13.4980    1.9200 O.3      70   G81      -0.6139
   2159 C1'        37.8020   11.1090    1.5900 C.3      70   G81       0.0191
   2160 N9         37.1130    9.9270    2.1090 N.ar     70   G81       0.0492
   2161 C8         37.6790    8.8660    2.7820 C.ar     70   G81       0.1374
   2162 N7         36.8060    7.9790    3.1700 N.ar     70   G81      -0.5709
   2163 C5         35.5900    8.4730    2.7160 C.ar     70   G81       0.1744
   2164 C6         34.2870    7.9430    2.8400 C.2      70   G81       0.4770
   2165 O6         33.9300    6.8930    3.4020 O.2      70   G81      -0.5597
   2166 N1         33.3420    8.7680    2.2330 N.am     70   G81      -0.4787
   2167 C2         33.6190    9.9490    1.5930 C.2      70   G81       0.7657
   2168 N2         32.5750   10.6000    1.0740 N.pl3    70   G81      -0.9672
   2169 N3         34.8310   10.4550    1.4720 N.2      70   G81      -0.6323
   2170 C4         35.7630    9.6710    2.0520 C.ar     70   G81       0.1222
   2171 H5'        41.6440   10.3125    2.1500 H        70   G81       0.0679
   2172 H5''       41.7420   11.3326    3.6033 H        70   G81       0.0679
   2173 H4'        40.3388   12.4558    2.0313 H        70   G81       0.1174
   2174 H3'        38.6339   11.0640    4.1224 H        70   G81       0.0615
   2175 H2'        36.7649   12.2311    3.1377 H        70   G81       0.0972
   2176 H1'        37.3915   11.4023    0.6238 H        70   G81       0.2006
   2177 H8         38.7390    8.7782    2.9691 H        70   G81       0.1640
   2178 H1         32.3767    8.4728    2.2671 H        70   G81       0.3424
   2179 H21        31.6450   10.2166    1.1646 H        70   G81       0.4364
   2180 H22        32.7154   11.4758    0.5909 H        70   G81       0.4364
   2181 HO2'       37.8071   14.2171    2.5532 H        70   G81       0.4186
   2182 P          38.4190   13.3350    5.6610 P.3      71   G82       1.1662
   2183 OP1        39.0810   14.4410    6.3990 O.co2    71   G82      -0.7760
   2184 OP2        38.1530   12.0460    6.3560 O.co2    71   G82      -0.7760
   2185 O5'        37.0540   13.9120    5.0900 O.3      71   G82      -0.4989
   2186 C5'        35.8950   13.9700    5.9030 C.3      71   G82       0.0558
   2187 C4'        34.6640   14.0140    5.0390 C.3      71   G82       0.1065
   2188 O4'        34.6780   12.8920    4.1200 O.3      71   G82      -0.3548
   2189 C3'        33.3730   13.8580    5.8120 C.3      71   G82       0.2022
   2190 O3'        32.9610   15.1190    6.3000 O.3      71   G82      -0.5246
   2191 C2'        32.4450   13.2830    4.7600 C.3      71   G82       0.0670
   2192 O2'        32.0270   14.2590    3.8350 O.3      71   G82      -0.6139
   2193 C1'        33.3910   12.3120    4.0590 C.3      71   G82       0.0191
   2194 N9         33.4690   11.0200    4.7260 N.ar     71   G82       0.0492
   2195 C8         34.6000   10.3930    5.1860 C.ar     71   G82       0.1374
   2196 N7         34.3590    9.2260    5.7160 N.ar     71   G82      -0.5709
   2197 C5         32.9850    9.0790    5.6070 C.ar     71   G82       0.1744
   2198 C6         32.1400    8.0100    6.0010 C.2      71   G82       0.4770
   2199 O6         32.4510    6.9440    6.5440 O.2      71   G82      -0.5597
   2200 N1         30.8050    8.2750    5.7030 N.am     71   G82      -0.4787
   2201 C2         30.3430    9.4190    5.0980 C.2      71   G82       0.7657
   2202 N2         29.0200    9.4920    4.8920 N.pl3    71   G82      -0.9672
   2203 N3         31.1220   10.4200    4.7220 N.2      71   G82      -0.6323
   2204 C4         32.4210   10.1830    5.0040 C.ar     71   G82       0.1222
   2205 H5'        35.8570   13.0871    6.5411 H        71   G82       0.0679
   2206 H5''       35.9332   14.8646    6.5246 H        71   G82       0.0679
   2207 H4'        34.6440   14.9477    4.4770 H        71   G82       0.1174
   2208 H3'        33.5023   13.1537    6.6338 H        71   G82       0.0615
   2209 H2'        31.5977   12.7656    5.2099 H        71   G82       0.0972
   2210 H1'        33.0890   12.1794    3.0201 H        71   G82       0.2006
   2211 H8         35.5886   10.8222    5.1162 H        71   G82       0.1640
   2212 H1         30.1239    7.5716    5.9509 H        71   G82       0.3424
   2213 H21        28.4216    8.7301    5.1776 H        71   G82       0.4364
   2214 H22        28.6219   10.3089    4.4513 H        71   G82       0.4364
   2215 HO2'       31.4309   14.8753    4.2668 H        71   G82       0.4186
   2216 P          32.7980   15.3290    7.8790 P.3      72   G83       1.1662
   2217 OP1        32.2790   16.7070    8.0910 O.co2    72   G83      -0.7760
   2218 OP2        34.0730   14.9050    8.5250 O.co2    72   G83      -0.7760
   2219 O5'        31.6430   14.2990    8.2610 O.3      72   G83      -0.4989
   2220 C5'        30.3840   14.3340    7.5860 C.3      72   G83       0.0558
   2221 C4'        29.5580   13.1160    7.9380 C.3      72   G83       0.1065
   2222 O4'        30.0900   11.9280    7.2950 O.3      72   G83      -0.3548
   2223 C3'        29.5300   12.7700    9.4150 C.3      72   G83       0.2022
   2224 O3'        28.5480   13.5430   10.0790 O.3      72   G83      -0.5246
   2225 C2'        29.1690   11.2920    9.3930 C.3      72   G83       0.0670
   2226 O2'        27.7820   11.0640    9.2390 O.3      72   G83      -0.6139
   2227 C1'        29.9420   10.8130    8.1610 C.3      72   G83       0.0191
   2228 N9         31.2780   10.3410    8.5010 N.ar     72   G83       0.0492
   2229 C8         32.4270   11.0920    8.5220 C.ar     72   G83       0.1374
   2230 N7         33.4810   10.4090    8.8730 N.ar     72   G83      -0.5709
   2231 C5         33.0020    9.1260    9.0960 C.ar     72   G83       0.1744
   2232 C6         33.6870    7.9480    9.4910 C.2      72   G83       0.4770
   2233 O6         34.8920    7.8010    9.7330 O.2      72   G83      -0.5597
   2234 N1         32.8190    6.8630    9.5950 N.am     72   G83      -0.4787
   2235 C2         31.4670    6.9020    9.3500 C.2      72   G83       0.7657
   2236 N2         30.8100    5.7410    9.5150 N.pl3    72   G83      -0.9672
   2237 N3         30.8140    7.9950    8.9750 N.2      72   G83      -0.6323
   2238 C4         31.6400    9.0650    8.8710 C.ar     72   G83       0.1222
   2239 H5'        30.5550   14.3521    6.5096 H        72   G83       0.0679
   2240 H5''       29.8428   15.2333    7.8798 H        72   G83       0.0679
   2241 H4'        28.5356   13.2735    7.5945 H        72   G83       0.1174
   2242 H3'        30.5108   12.9214    9.8659 H        72   G83       0.0615
   2243 H2'        29.5388   10.7965   10.2907 H        72   G83       0.0972
   2244 H1'        29.3856   10.0225    7.6573 H        72   G83       0.2006
   2245 H8         32.4552   12.1425    8.2729 H        72   G83       0.1640
   2246 H1         33.2152    5.9764    9.8728 H        72   G83       0.3424
   2247 H21        31.3122    4.9128    9.8012 H        72   G83       0.4364
   2248 H22        29.8141    5.6969    9.3528 H        72   G83       0.4364
   2249 HO2'       27.3173   11.3832   10.0160 H        72   G83       0.4186
   2250 P          29.0030   14.6280   11.1640 P.3      73   A84       1.1662
   2251 OP1        28.6590   15.9490   10.5850 O.co2    73   A84      -0.7760
   2252 OP2        30.4080   14.3360   11.5600 O.co2    73   A84      -0.7760
   2253 O5'        28.0340   14.3450   12.3960 O.3      73   A84      -0.4989
   2254 C5'        26.6980   14.8430   12.3970 C.3      73   A84       0.0558
   2255 C4'        25.8230   14.0060   13.2980 C.3      73   A84       0.1065
   2256 O4'        25.5940   12.7150   12.6830 O.3      73   A84      -0.3548
   2257 C3'        26.3990   13.6890   14.6720 C.3      73   A84       0.2022
   2258 O3'        26.1220   14.7440   15.5940 O.3      73   A84      -0.5246
   2259 C2'        25.6530   12.4130   15.0490 C.3      73   A84       0.0670
   2260 O2'        24.3650   12.6640   15.5710 O.3      73   A84      -0.6139
   2261 C1'        25.5170   11.7200   13.6910 C.3      73   A84       0.0394
   2262 N9         26.5490   10.7180   13.4220 N.ar     73   A84      -0.0251
   2263 C8         27.9030   10.9030   13.3120 C.ar     73   A84       0.2006
   2264 N7         28.5590    9.8100   13.0070 N.ar     73   A84      -0.6073
   2265 C5         27.5720    8.8400   12.9250 C.ar     73   A84       0.0515
   2266 C6         27.6180    7.4810   12.6300 C.ar     73   A84       0.7009
   2267 N6         28.7400    6.8260   12.3530 N.pl3    73   A84      -0.9019
   2268 N1         26.4570    6.8000   12.6290 N.ar     73   A84      -0.7615
   2269 C2         25.3330    7.4510   12.9150 C.ar     73   A84       0.5875
   2270 N3         25.1600    8.7250   13.2110 N.ar     73   A84      -0.6997
   2271 C4         26.3340    9.3780   13.1940 C.ar     73   A84       0.3053
   2272 H5'        26.6994   15.8728   12.7542 H        73   A84       0.0679
   2273 H5''       26.3019   14.8142   11.3819 H        73   A84       0.0679
   2274 H4'        24.8650   14.5101   13.4256 H        73   A84       0.1174
   2275 H3'        27.4713   13.5044   14.6077 H        73   A84       0.0615
   2276 H2'        26.2413   11.8072   15.7382 H        73   A84       0.0972
   2277 H1'        24.5395   11.2407   13.6375 H        73   A84       0.2007
   2278 H8         28.3834   11.8585   13.4624 H        73   A84       0.1553
   2279 H2         24.4346    6.8518   12.9033 H        73   A84       0.0473
   2280 HO2'       23.7485   12.8054   14.8488 H        73   A84       0.4186
   2281 H61        29.4240    7.5573   12.2210 H        73   A84       0.4115
   2282 H62        28.8774    5.8274   12.2892 H        73   A84       0.4115
   2283 P          27.1850   15.1050   16.7500 P.3      74   A85       1.1662
   2284 OP1        26.5560   16.1460   17.6100 O.co2    74   A85      -0.7760
   2285 OP2        28.5210   15.3610   16.1370 O.co2    74   A85      -0.7760
   2286 O5'        27.2900   13.7680   17.6080 O.3      74   A85      -0.4989
   2287 C5'        28.1930   13.6820   18.7080 C.3      74   A85       0.0558
   2288 C4'        27.5610   14.2930   19.9340 C.3      74   A85       0.1065
   2289 O4'        26.3920   13.5140   20.3010 O.3      74   A85      -0.3548
   2290 C3'        28.4840   14.2610   21.1430 C.3      74   A85       0.2022
   2291 O3'        28.7260   15.5780   21.6770 O.3      74   A85      -0.5246
   2292 C2'        28.0680   13.0310   21.9640 C.3      74   A85       0.0670
   2293 O2'        28.0490   13.2250   23.3590 O.3      74   A85      -0.6139
   2294 C1'        26.6170   12.8440   21.5170 C.3      74   A85       0.0394
   2295 N9         26.0030   11.5160   21.4690 N.ar     74   A85      -0.0251
   2296 C8         26.5180   10.2930   21.1300 C.ar     74   A85       0.2006
   2297 N7         25.6550    9.3100   21.2400 N.ar     74   A85      -0.6073
   2298 C5         24.4900    9.9320   21.6700 C.ar     74   A85       0.0515
   2299 C6         23.2000    9.4430   21.9770 C.ar     74   A85       0.7009
   2300 N6         22.8470    8.1630   21.8860 N.pl3    74   A85      -0.9019
   2301 N1         22.2710   10.3330   22.3850 N.ar     74   A85      -0.7615
   2302 C2         22.6180   11.6250   22.4740 C.ar     74   A85       0.5875
   2303 N3         23.7860   12.2030   22.2120 N.ar     74   A85      -0.6997
   2304 C4         24.6900   11.2900   21.8110 C.ar     74   A85       0.3053
   2305 H5'        28.4262   12.6355   18.9042 H        74   A85       0.0679
   2306 H5''       29.1104   14.2190   18.4670 H        74   A85       0.0679
   2307 H4'        27.2667   15.3210   19.7228 H        74   A85       0.1174
   2308 H3'        29.4477   13.9741   20.7221 H        74   A85       0.0615
   2309 H2'        28.6722   12.1633   21.6994 H        74   A85       0.0972
   2310 H1'        26.0280   13.3952   22.2501 H        74   A85       0.2007
   2311 H8         27.5375   10.1508   20.8032 H        74   A85       0.1553
   2312 H2         21.8362   12.2919   22.8063 H        74   A85       0.0473
   2313 H61        21.9272    7.8697   22.1828 H        74   A85       0.4115
   2314 H62        23.4994    7.4844   21.5199 H        74   A85       0.4115
   2315 HO2'       27.5170   13.9964   23.5676 H        74   A85       0.4186
   2316 P          29.2000   15.7810   23.2040 P.3      75   G86       1.1662
   2317 OP1        29.7900   17.1450   23.2960 O.co2    75   G86      -0.7760
   2318 OP2        30.0010   14.6000   23.6430 O.co2    75   G86      -0.7760
   2319 O5'        27.8410   15.8030   24.0380 O.3      75   G86      -0.4989
   2320 C5'        27.8060   15.3010   25.3650 C.3      75   G86       0.0558
   2321 C4'        26.4210   15.4160   25.9380 C.3      75   G86       0.1065
   2322 O4'        25.4700   14.7720   25.0490 O.3      75   G86      -0.3548
   2323 C3'        26.2530   14.6910   27.2600 C.3      75   G86       0.2022
   2324 O3'        26.6540   15.5070   28.3490 O.3      75   G86      -0.5246
   2325 C2'        24.7620   14.4000   27.2820 C.3      75   G86       0.0670
   2326 O2'        24.0120   15.5230   27.6950 O.3      75   G86      -0.6139
   2327 C1'        24.5080   14.0560   25.8110 C.3      75   G86       0.0191
   2328 N9         24.6960   12.6350   25.5320 N.ar     75   G86       0.0492
   2329 C8         25.8140   12.0490   24.9880 C.ar     75   G86       0.1374
   2330 N7         25.7030   10.7560   24.8520 N.ar     75   G86      -0.5709
   2331 C5         24.4350   10.4690   25.3320 C.ar     75   G86       0.1744
   2332 C6         23.7550    9.2300   25.4340 C.2      75   G86       0.4770
   2333 O6         24.1510    8.1060   25.1040 O.2      75   G86      -0.5597
   2334 N1         22.4880    9.3870   25.9870 N.am     75   G86      -0.4787
   2335 C2         21.9450   10.5850   26.3890 C.2      75   G86       0.7657
   2336 N2         20.7130   10.5320   26.9030 N.pl3    75   G86      -0.9672
   2337 N3         22.5690   11.7500   26.2950 N.2      75   G86      -0.6323
   2338 C4         23.8010   11.6180   25.7600 C.ar     75   G86       0.1222
   2339 H5'        28.1053   14.2529   25.3593 H        75   G86       0.0679
   2340 H5''       28.4999   15.8702   25.9836 H        75   G86       0.0679
   2341 H4'        26.1586   16.4671   26.0586 H        75   G86       0.1174
   2342 H3'        26.8201   13.7602   27.2558 H        75   G86       0.0615
   2343 H2'        24.5485   13.5414   27.9187 H        75   G86       0.0972
   2344 H1'        23.5020   14.3625   25.5245 H        75   G86       0.2006
   2345 H8         26.6958   12.6031   24.7019 H        75   G86       0.1640
   2346 H1         21.9236    8.5574   26.1021 H        75   G86       0.3424
   2347 H21        20.2345    9.6457   26.9772 H        75   G86       0.4364
   2348 H22        20.2601   11.3783   27.2174 H        75   G86       0.4364
   2349 HO2'       23.0779   15.3016   27.6964 H        75   G86       0.4186
   2350 P          27.0680   14.8210   29.7390 P.3      76   U87       1.1662
   2351 OP1        27.3710   15.8990   30.7200 O.co2    76   U87      -0.7760
   2352 OP2        28.0910   13.7810   29.4510 O.co2    76   U87      -0.7760
   2353 O5'        25.7220   14.1100   30.2120 O.3      76   U87      -0.4989
   2354 C5'        24.6880   14.8560   30.8540 C.3      76   U87       0.0558
   2355 C4'        23.6590   13.9230   31.4560 C.3      76   U87       0.1065
   2356 O4'        22.9700   13.2060   30.3940 O.3      76   U87      -0.3548
   2357 C3'        24.1920   12.8140   32.3510 C.3      76   U87       0.2022
   2358 O3'        24.4180   13.2450   33.6830 O.3      76   U87      -0.5246
   2359 C2'        23.0540   11.8090   32.3070 C.3      76   U87       0.0670
   2360 O2'        21.9910   12.1620   33.1650 O.3      76   U87      -0.6139
   2361 C1'        22.6340   11.8990   30.8390 C.3      76   U87       0.0674
   2362 N1         23.3860   10.9230   30.0390 N.am     76   U87       0.0418
   2363 C2         22.7710    9.7180   29.7650 C.2      76   U87       0.4687
   2364 O2         21.6360    9.4640   30.1290 O.2      76   U87      -0.5477
   2365 N3         23.5350    8.8210   29.0530 N.am     76   U87      -0.3549
   2366 C4         24.8250    9.0110   28.5930 C.2      76   U87       0.5952
   2367 O4         25.3860    8.1090   27.9710 O.2      76   U87      -0.5761
   2368 C5         25.3860   10.2930   28.9070 C.2      76   U87      -0.3635
   2369 C6         24.6660   11.1830   29.5990 C.2      76   U87      -0.1126
   2370 H5'        24.2027   15.5007   30.1212 H        76   U87       0.0679
   2371 H5''       25.1229   15.4701   31.6426 H        76   U87       0.0679
   2372 H4'        22.9319   14.5113   32.0158 H        76   U87       0.1174
   2373 H3'        25.0998   12.3836   31.9283 H        76   U87       0.0615
   2374 H2'        23.4179   10.8084   32.5403 H        76   U87       0.0972
   2375 H1'        21.5623   11.7273   30.7391 H        76   U87       0.1824
   2376 H3         23.1080    7.9298   28.8446 H        76   U87       0.3154
   2377 H5         26.3872   10.5392   28.5856 H        76   U87       0.1811
   2378 H6         25.1054   12.1441   29.8219 H        76   U87       0.2188
   2379 HO2'       21.4746   11.3801   33.3739 H        76   U87       0.4186
   2380 P          25.2920   12.3300   34.6720 P.3      77   C88       1.1662
   2381 OP1        25.3470   13.0550   35.9590 O.co2    77   C88      -0.7760
   2382 OP2        26.5590   11.9240   34.0040 O.co2    77   C88      -0.7760
   2383 O5'        24.4070   11.0230   34.8720 O.3      77   C88      -0.4989
   2384 C5'        23.1150   11.1010   35.4550 C.3      77   C88       0.0558
   2385 C4'        22.3980    9.7780   35.3200 C.3      77   C88       0.1065
   2386 O4'        22.2780    9.4420   33.9160 O.3      77   C88      -0.3548
   2387 C3'        23.0960    8.5740   35.9300 C.3      77   C88       0.2022
   2388 O3'        22.7730    8.4620   37.3100 O.3      77   C88      -0.5246
   2389 C2'        22.4600    7.4300   35.1610 C.3      77   C88       0.0670
   2390 O2'        21.1800    7.1440   35.6800 O.3      77   C88      -0.6139
   2391 C1'        22.3390    8.0320   33.7570 C.3      77   C88       0.0066
   2392 N1         23.4930    7.7060   32.9010 N.am     77   C88      -0.0484
   2393 C2         23.5050    6.4910   32.2050 C.2      77   C88       0.7538
   2394 O2         22.5220    5.7410   32.2910 O.2      77   C88      -0.6252
   2395 N3         24.5890    6.1710   31.4570 N.2      77   C88      -0.7584
   2396 C4         25.6250    7.0110   31.3910 C.2      77   C88       0.8185
   2397 N4         26.6770    6.6560   30.6670 N.pl3    77   C88      -0.9530
   2398 C5         25.6270    8.2560   32.0720 C.2      77   C88      -0.5215
   2399 C6         24.5510    8.5640   32.8050 C.2      77   C88       0.0053
   2400 H5'        23.2119   11.3512   36.5115 H        77   C88       0.0679
   2401 H5''       22.5383   11.8770   34.9518 H        77   C88       0.0679
   2402 H4'        21.4009    9.8678   35.7511 H        77   C88       0.1174
   2403 H3'        24.1738    8.6129   35.7723 H        77   C88       0.0615
   2404 H2'        23.0974    6.5458   35.1621 H        77   C88       0.0972
   2405 H1'        21.4225    7.6776   33.2853 H        77   C88       0.2029
   2406 H5         26.4672    8.9309   32.0011 H        77   C88       0.1928
   2407 H6         24.5186    9.5074   33.3298 H        77   C88       0.1958
   2408 H41        26.6804    5.7702   30.1818 H        77   C88       0.4234
   2409 H42        27.4752    7.2713   30.6005 H        77   C88       0.4234
   2410 HO2'       21.1649    6.2458   36.0186 H        77   C88       0.4186
   2411 P          23.6510    7.6060   38.2990 P.3      78   G89       1.1662
   2412 OP1        23.1500    7.8130   39.6830 O.co2    78   G89      -0.7760
   2413 OP2        25.0580    7.9600   37.9670 O.co2    78   G89      -0.7760
   2414 O5'        23.3980    6.0780   37.9010 O.3      78   G89      -0.4989
   2415 C5'        22.1090    5.4690   38.0500 C.3      78   G89       0.0558
   2416 C4'        22.1080    4.0690   37.4640 C.3      78   G89       0.1065
   2417 O4'        22.3530    4.1300   36.0340 O.3      78   G89      -0.3548
   2418 C3'        23.1810    3.1250   37.9710 C.3      78   G89       0.2022
   2419 O3'        22.7740    2.5120   39.1840 O.3      78   G89      -0.5246
   2420 C2'        23.2440    2.1000   36.8500 C.3      78   G89       0.0670
   2421 O2'        22.1510    1.2100   36.9020 O.3      78   G89      -0.6139
   2422 C1'        23.0720    2.9840   35.6220 C.3      78   G89       0.0191
   2423 N9         24.3210    3.4210   35.0070 N.ar     78   G89       0.0492
   2424 C8         24.8980    4.6670   35.1000 C.ar     78   G89       0.1374
   2425 N7         25.9770    4.7900   34.3730 N.ar     78   G89      -0.5709
   2426 C5         26.1330    3.5460   33.7760 C.ar     78   G89       0.1744
   2427 C6         27.1190    3.0790   32.8600 C.2      78   G89       0.4770
   2428 O6         28.0740    3.6930   32.3640 O.2      78   G89      -0.5597
   2429 N1         26.9010    1.7510   32.5190 N.am     78   G89      -0.4787
   2430 C2         25.8680    0.9710   32.9820 C.2      78   G89       0.7657
   2431 N2         25.8400   -0.2910   32.5260 N.pl3    78   G89      -0.9672
   2432 N3         24.9380    1.3950   33.8240 N.2      78   G89      -0.6323
   2433 C4         25.1300    2.6820   34.1750 C.ar     78   G89       0.1222
   2434 H5'        21.3651    6.0744   37.5321 H        78   G89       0.0679
   2435 H5''       21.8562    5.4161   39.1090 H        78   G89       0.0679
   2436 H4'        21.1313    3.6164   37.6350 H        78   G89       0.1174
   2437 H3'        24.1348    3.6391   38.0895 H        78   G89       0.0615
   2438 H2'        24.1969    1.5709   36.8380 H        78   G89       0.0972
   2439 H1'        22.4826    2.4458   34.8796 H        78   G89       0.2006
   2440 H8         24.4994    5.4627   35.7119 H        78   G89       0.1640
   2441 H1         27.5545    1.3231   31.8787 H        78   G89       0.3424
   2442 H21        26.5505   -0.6118   31.8839 H        78   G89       0.4364
   2443 H22        25.1084   -0.9199   32.8250 H        78   G89       0.4364
   2444 HO2'       22.4700    0.3201   37.0693 H        78   G89       0.4186
   2445 P          23.8720    1.8510   40.1520 P.3      79   C90       1.1662
   2446 OP1        23.1570    1.3880   41.3630 O.co2    79   C90      -0.7760
   2447 OP2        24.9930    2.8100   40.2720 O.co2    79   C90      -0.7760
   2448 O5'        24.4010    0.5600   39.3830 O.3      79   C90      -0.4989
   2449 C5'        23.5670   -0.5840   39.2060 C.3      79   C90       0.0558
   2450 C4'        24.2470   -1.5950   38.3130 C.3      79   C90       0.1065
   2451 O4'        24.5450   -0.9680   37.0380 O.3      79   C90      -0.3548
   2452 C3'        25.5990   -2.0920   38.7980 C.3      79   C90       0.2022
   2453 O3'        25.4340   -3.2000   39.6590 O.3      79   C90      -0.6541
   2454 C2'        26.2670   -2.5390   37.5060 C.3      79   C90       0.0670
   2455 O2'        25.8190   -3.8060   37.0910 O.3      79   C90      -0.6139
   2456 C1'        25.7580   -1.4920   36.5220 C.3      79   C90       0.0066
   2457 N1         26.6970   -0.3850   36.3240 N.am     79   C90      -0.0484
   2458 C2         27.6820   -0.5300   35.3650 C.2      79   C90       0.7538
   2459 O2         27.7520   -1.5970   34.7470 O.2      79   C90      -0.6252
   2460 N3         28.5320    0.4880   35.1310 N.2      79   C90      -0.7584
   2461 C4         28.4250    1.6150   35.8280 C.2      79   C90       0.8185
   2462 N4         29.2770    2.5930   35.5510 N.pl3    79   C90      -0.9530
   2463 C5         27.4370    1.7870   36.8350 C.2      79   C90      -0.5215
   2464 C6         26.6010    0.7680   37.0510 C.2      79   C90       0.0053
   2465 H5'        22.6264   -0.2760   38.7493 H        79   C90       0.0679
   2466 H5''       23.3655   -1.0374   40.1765 H        79   C90       0.0679
   2467 H4'        23.5829   -2.4446   38.1540 H        79   C90       0.1174
   2468 H3'        26.1642   -1.2951   39.2813 H        79   C90       0.0615
   2469 H2'        27.3534   -2.5099   37.5900 H        79   C90       0.0972
   2470 H1'        25.5612   -1.9696   35.5622 H        79   C90       0.2029
   2471 H5         27.3652    2.7034   37.4019 H        79   C90       0.1928
   2472 H6         25.8386    0.8566   37.8108 H        79   C90       0.1958
   2473 H41        29.9761    2.4656   34.8333 H        79   C90       0.4234
   2474 H42        29.2267    3.4652   36.0578 H        79   C90       0.4234
   2475 HO3'       25.0124   -2.9137   40.4725 H        79   C90       0.4376
   2476 HO2'       26.1341   -4.4740   37.7042 H        79   C90       0.4186
@<TRIPOS>BOND
     1    1    2 1
     2    2    3 1
     3    3    5 1
     4    3    4 1
     5    4    9 1
     6    5    7 1
     7    5    6 1
     8    7    9 1
     9    7    8 1
    10    9   10 1
    11   10   20 ar
    12   10   11 ar
    13   11   12 ar
    14   12   13 ar
    15   13   20 ar
    16   13   14 1
    17   14   15 2
    18   14   16 am
    19   16   17 1
    20   17   18 2
    21   17   19 2
    22   19   20 1
    23   33   35 1
    24   33   34 1
    25   33   36 1
    26   36   37 1
    27   37   38 1
    28   38   40 1
    29   38   39 1
    30   39   44 1
    31   40   41 1
    32   40   42 1
    33   42   44 1
    34   42   43 1
    35   44   45 1
    36   45   52 1
    37   45   46 am
    38   46   47 2
    39   46   48 1
    40   48   49 2
    41   49   50 2
    42   49   51 2
    43   51   52 2
    44   33    6 1
    45   64   65 1
    46   64   67 1
    47   64   66 1
    48   67   68 1
    49   68   69 1
    50   69   71 1
    51   69   70 1
    52   70   75 1
    53   71   72 1
    54   71   73 1
    55   73   75 1
    56   73   74 1
    57   75   76 1
    58   76   77 ar
    59   76   86 ar
    60   77   78 ar
    61   78   79 ar
    62   79   80 1
    63   79   86 ar
    64   80   82 am
    65   80   81 2
    66   82   83 1
    67   83   84 2
    68   83   85 2
    69   85   86 1
    70   41   64 1
    71   98   99 1
    72   98  100 1
    73   98  101 1
    74  101  102 1
    75  102  103 1
    76  103  105 1
    77  103  104 1
    78  104  109 1
    79  105  107 1
    80  105  106 1
    81  107  109 1
    82  107  108 1
    83  109  110 1
    84  110  119 ar
    85  110  111 ar
    86  111  112 ar
    87  112  113 ar
    88  113  119 ar
    89  113  114 ar
    90  114  116 ar
    91  114  115 1
    92  116  117 ar
    93  117  118 ar
    94  118  119 ar
    95   72   98 1
    96  131  133 1
    97  131  132 1
    98  131  134 1
    99  134  135 1
   100  135  136 1
   101  136  138 1
   102  136  137 1
   103  137  142 1
   104  138  139 1
   105  138  140 1
   106  140  142 1
   107  140  141 1
   108  142  143 1
   109  143  150 1
   110  143  144 am
   111  144  145 2
   112  144  146 1
   113  146  147 2
   114  147  148 2
   115  147  149 2
   116  149  150 2
   117  106  131 1
   118  162  163 1
   119  162  164 1
   120  162  165 1
   121  165  166 1
   122  166  167 1
   123  167  169 1
   124  167  168 1
   125  168  173 1
   126  169  171 1
   127  169  170 1
   128  171  172 1
   129  171  173 1
   130  173  174 1
   131  174  175 am
   132  174  181 1
   133  175  176 2
   134  175  177 am
   135  177  178 am
   136  178  180 1
   137  178  179 2
   138  180  181 2
   139  139  162 1
   140  192  194 1
   141  192  193 1
   142  192  195 1
   143  195  196 1
   144  196  197 1
   145  197  199 1
   146  197  198 1
   147  198  203 1
   148  199  200 1
   149  199  201 1
   150  201  203 1
   151  201  202 1
   152  203  204 1
   153  204  211 1
   154  204  205 am
   155  205  206 2
   156  205  207 1
   157  207  208 2
   158  208  209 2
   159  208  210 2
   160  210  211 2
   161  170  192 1
   162  223  224 1
   163  223  226 1
   164  223  225 1
   165  226  227 1
   166  227  228 1
   167  228  230 1
   168  228  229 1
   169  229  234 1
   170  230  231 1
   171  230  232 1
   172  232  234 1
   173  232  233 1
   174  234  235 1
   175  235  236 ar
   176  235  245 ar
   177  236  237 ar
   178  237  238 ar
   179  238  239 1
   180  238  245 ar
   181  239  241 am
   182  239  240 2
   183  241  242 1
   184  242  243 2
   185  242  244 2
   186  244  245 1
   187  200  223 1
   188  257  258 1
   189  257  260 1
   190  257  259 1
   191  260  261 1
   192  261  262 1
   193  262  264 1
   194  262  263 1
   195  263  268 1
   196  264  265 1
   197  264  266 1
   198  266  268 1
   199  266  267 1
   200  268  269 1
   201  269  270 ar
   202  269  279 ar
   203  270  271 ar
   204  271  272 ar
   205  272  273 1
   206  272  279 ar
   207  273  275 am
   208  273  274 2
   209  275  276 1
   210  276  277 2
   211  276  278 2
   212  278  279 1
   213  231  257 1
   214  291  292 1
   215  291  294 1
   216  291  293 1
   217  294  295 1
   218  295  296 1
   219  296  298 1
   220  296  297 1
   221  297  302 1
   222  298  299 1
   223  298  300 1
   224  300  302 1
   225  300  301 1
   226  302  303 1
   227  303  304 ar
   228  303  313 ar
   229  304  305 ar
   230  305  306 ar
   231  306  307 1
   232  306  313 ar
   233  307  309 am
   234  307  308 2
   235  309  310 1
   236  310  311 2
   237  310  312 2
   238  312  313 1
   239  265  291 1
   240  325  326 1
   241  325  328 1
   242  325  327 1
   243  328  329 1
   244  329  330 1
   245  330  332 1
   246  330  331 1
   247  331  336 1
   248  332  333 1
   249  332  334 1
   250  334  336 1
   251  334  335 1
   252  336  337 1
   253  337  338 ar
   254  337  347 ar
   255  338  339 ar
   256  339  340 ar
   257  340  341 1
   258  340  347 ar
   259  341  343 am
   260  341  342 2
   261  343  344 1
   262  344  345 2
   263  344  346 2
   264  346  347 1
   265  299  325 1
   266  359  360 1
   267  359  361 1
   268  359  362 1
   269  362  363 1
   270  363  364 1
   271  364  366 1
   272  364  365 1
   273  365  370 1
   274  366  368 1
   275  366  367 1
   276  368  369 1
   277  368  370 1
   278  370  371 1
   279  371  372 am
   280  371  378 1
   281  372  373 2
   282  372  374 am
   283  374  375 am
   284  375  377 1
   285  375  376 2
   286  377  378 2
   287  333  359 1
   288  389  390 1
   289  389  392 1
   290  389  391 1
   291  392  393 1
   292  393  394 1
   293  394  396 1
   294  394  395 1
   295  395  400 1
   296  396  397 1
   297  396  398 1
   298  398  400 1
   299  398  399 1
   300  400  401 1
   301  401  402 ar
   302  401  411 ar
   303  402  403 ar
   304  403  404 ar
   305  404  405 1
   306  404  411 ar
   307  405  407 am
   308  405  406 2
   309  407  408 1
   310  408  409 2
   311  408  410 2
   312  410  411 1
   313  367  389 1
   314  423  425 1
   315  423  424 1
   316  423  426 1
   317  426  427 1
   318  427  428 1
   319  428  430 1
   320  428  429 1
   321  429  434 1
   322  430  431 1
   323  430  432 1
   324  432  434 1
   325  432  433 1
   326  434  435 1
   327  435  442 1
   328  435  436 am
   329  436  437 2
   330  436  438 1
   331  438  439 2
   332  439  440 2
   333  439  441 2
   334  441  442 2
   335  397  423 1
   336  454  456 1
   337  454  455 1
   338  454  457 1
   339  457  458 1
   340  458  459 1
   341  459  461 1
   342  459  460 1
   343  460  465 1
   344  461  462 1
   345  461  463 1
   346  463  465 1
   347  463  464 1
   348  465  466 1
   349  466  473 1
   350  466  467 am
   351  467  468 2
   352  467  469 1
   353  469  470 2
   354  470  471 2
   355  470  472 2
   356  472  473 2
   357  431  454 1
   358  485  487 1
   359  485  486 1
   360  485  488 1
   361  488  489 1
   362  489  490 1
   363  490  492 1
   364  490  491 1
   365  491  496 1
   366  492  493 1
   367  492  494 1
   368  494  496 1
   369  494  495 1
   370  496  497 1
   371  497  504 1
   372  497  498 am
   373  498  499 2
   374  498  500 1
   375  500  501 2
   376  501  502 2
   377  501  503 2
   378  503  504 2
   379  462  485 1
   380  516  517 1
   381  516  518 1
   382  516  519 1
   383  519  520 1
   384  520  521 1
   385  521  523 1
   386  521  522 1
   387  522  527 1
   388  523  525 1
   389  523  524 1
   390  525  526 1
   391  525  527 1
   392  527  528 1
   393  528  529 am
   394  528  535 1
   395  529  530 2
   396  529  531 am
   397  531  532 am
   398  532  534 1
   399  532  533 2
   400  534  535 2
   401  493  516 1
   402  546  547 1
   403  546  548 1
   404  546  549 1
   405  524  546 1
   406  550  552 1
   407  550  551 1
   408  550  553 1
   409  553  554 1
   410  554  555 1
   411  555  557 1
   412  555  556 1
   413  556  561 1
   414  557  558 1
   415  557  559 1
   416  559  561 1
   417  559  560 1
   418  561  562 1
   419  562  569 1
   420  562  563 am
   421  563  564 2
   422  563  565 1
   423  565  566 2
   424  566  567 2
   425  566  568 2
   426  568  569 2
   427  550  549 1
   428  581  582 1
   429  581  584 1
   430  581  583 1
   431  584  585 1
   432  585  586 1
   433  586  588 1
   434  586  587 1
   435  587  592 1
   436  588  589 1
   437  588  590 1
   438  590  592 1
   439  590  591 1
   440  592  593 1
   441  593  594 ar
   442  593  603 ar
   443  594  595 ar
   444  595  596 ar
   445  596  597 1
   446  596  603 ar
   447  597  599 am
   448  597  598 2
   449  599  600 1
   450  600  601 2
   451  600  602 2
   452  602  603 1
   453  558  581 1
   454  615  616 1
   455  615  617 1
   456  615  618 1
   457  618  619 1
   458  619  620 1
   459  620  622 1
   460  620  621 1
   461  621  626 1
   462  622  624 1
   463  622  623 1
   464  624  625 1
   465  624  626 1
   466  626  627 1
   467  627  628 am
   468  627  634 1
   469  628  629 2
   470  628  630 am
   471  630  631 am
   472  631  633 1
   473  631  632 2
   474  633  634 2
   475  589  615 1
   476  645  646 1
   477  645  648 1
   478  645  647 1
   479  648  649 1
   480  649  650 1
   481  650  652 1
   482  650  651 1
   483  651  656 1
   484  652  653 1
   485  652  654 1
   486  654  656 1
   487  654  655 1
   488  656  657 1
   489  657  658 ar
   490  657  667 ar
   491  658  659 ar
   492  659  660 ar
   493  660  661 1
   494  660  667 ar
   495  661  663 am
   496  661  662 2
   497  663  664 1
   498  664  665 2
   499  664  666 2
   500  666  667 1
   501  623  645 1
   502  679  680 1
   503  679  681 1
   504  679  682 1
   505  682  683 1
   506  683  684 1
   507  684  686 1
   508  684  685 1
   509  685  690 1
   510  686  688 1
   511  686  687 1
   512  688  690 1
   513  688  689 1
   514  690  691 1
   515  691  700 ar
   516  691  692 ar
   517  692  693 ar
   518  693  694 ar
   519  694  700 ar
   520  694  695 ar
   521  695  697 ar
   522  695  696 1
   523  697  698 ar
   524  698  699 ar
   525  699  700 ar
   526  653  679 1
   527  712  713 1
   528  712  714 1
   529  712  715 1
   530  715  716 1
   531  716  717 1
   532  717  719 1
   533  717  718 1
   534  718  723 1
   535  719  721 1
   536  719  720 1
   537  721  723 1
   538  721  722 1
   539  723  724 1
   540  724  733 ar
   541  724  725 ar
   542  725  726 ar
   543  726  727 ar
   544  727  733 ar
   545  727  728 ar
   546  728  730 ar
   547  728  729 1
   548  730  731 ar
   549  731  732 ar
   550  732  733 ar
   551  687  712 1
   552  745  746 1
   553  745  748 1
   554  745  747 1
   555  748  749 1
   556  749  750 1
   557  750  752 1
   558  750  751 1
   559  751  756 1
   560  752  753 1
   561  752  754 1
   562  754  756 1
   563  754  755 1
   564  756  757 1
   565  757  758 ar
   566  757  767 ar
   567  758  759 ar
   568  759  760 ar
   569  760  761 1
   570  760  767 ar
   571  761  763 am
   572  761  762 2
   573  763  764 1
   574  764  765 2
   575  764  766 2
   576  766  767 1
   577  720  745 1
   578  779  780 1
   579  779  782 1
   580  779  781 1
   581  782  783 1
   582  783  784 1
   583  784  786 1
   584  784  785 1
   585  785  790 1
   586  786  787 1
   587  786  788 1
   588  788  790 1
   589  788  789 1
   590  790  791 1
   591  791  792 ar
   592  791  801 ar
   593  792  793 ar
   594  793  794 ar
   595  794  795 1
   596  794  801 ar
   597  795  797 am
   598  795  796 2
   599  797  798 1
   600  798  799 2
   601  798  800 2
   602  800  801 1
   603  753  779 1
   604  813  815 1
   605  813  814 1
   606  813  816 1
   607  816  817 1
   608  817  818 1
   609  818  820 1
   610  818  819 1
   611  819  824 1
   612  820  821 1
   613  820  822 1
   614  822  824 1
   615  822  823 1
   616  824  825 1
   617  825  832 1
   618  825  826 am
   619  826  827 2
   620  826  828 1
   621  828  829 2
   622  829  830 2
   623  829  831 2
   624  831  832 2
   625  787  813 1
   626  844  845 1
   627  844  846 1
   628  844  847 1
   629  847  848 1
   630  848  849 1
   631  849  851 1
   632  849  850 1
   633  850  855 1
   634  851  853 1
   635  851  852 1
   636  853  854 1
   637  853  855 1
   638  855  856 1
   639  856  857 am
   640  856  863 1
   641  857  858 2
   642  857  859 am
   643  859  860 am
   644  860  862 1
   645  860  861 2
   646  862  863 2
   647  821  844 1
   648  874  875 1
   649  874  877 1
   650  874  876 1
   651  877  878 1
   652  878  879 1
   653  879  881 1
   654  879  880 1
   655  880  885 1
   656  881  882 1
   657  881  883 1
   658  883  885 1
   659  883  884 1
   660  885  886 1
   661  886  887 ar
   662  886  896 ar
   663  887  888 ar
   664  888  889 ar
   665  889  890 1
   666  889  896 ar
   667  890  892 am
   668  890  891 2
   669  892  893 1
   670  893  894 2
   671  893  895 2
   672  895  896 1
   673  852  874 1
   674  908  909 1
   675  908  910 1
   676  908  911 1
   677  911  912 1
   678  912  913 1
   679  913  915 1
   680  913  914 1
   681  914  919 1
   682  915  917 1
   683  915  916 1
   684  917  919 1
   685  917  918 1
   686  919  920 1
   687  920  929 ar
   688  920  921 ar
   689  921  922 ar
   690  922  923 ar
   691  923  929 ar
   692  923  924 ar
   693  924  926 ar
   694  924  925 1
   695  926  927 ar
   696  927  928 ar
   697  928  929 ar
   698  882  908 1
   699  941  942 1
   700  941  944 1
   701  941  943 1
   702  944  945 1
   703  945  946 1
   704  946  948 1
   705  946  947 1
   706  947  952 1
   707  948  949 1
   708  948  950 1
   709  950  952 1
   710  950  951 1
   711  952  953 1
   712  953  954 ar
   713  953  963 ar
   714  954  955 ar
   715  955  956 ar
   716  956  957 1
   717  956  963 ar
   718  957  959 am
   719  957  958 2
   720  959  960 1
   721  960  961 2
   722  960  962 2
   723  962  963 1
   724  916  941 1
   725  975  976 1
   726  975  977 1
   727  975  978 1
   728  978  979 1
   729  979  980 1
   730  980  982 1
   731  980  981 1
   732  981  986 1
   733  982  984 1
   734  982  983 1
   735  984  986 1
   736  984  985 1
   737  986  987 1
   738  987  996 ar
   739  987  988 ar
   740  988  989 ar
   741  989  990 ar
   742  990  996 ar
   743  990  991 ar
   744  991  993 ar
   745  991  992 1
   746  993  994 ar
   747  994  995 ar
   748  995  996 ar
   749  949  975 1
   750 1008 1009 1
   751 1008 1010 1
   752 1008 1011 1
   753 1011 1012 1
   754 1012 1013 1
   755 1013 1015 1
   756 1013 1014 1
   757 1014 1019 1
   758 1015 1017 1
   759 1015 1016 1
   760 1017 1019 1
   761 1017 1018 1
   762 1019 1020 1
   763 1020 1029 ar
   764 1020 1021 ar
   765 1021 1022 ar
   766 1022 1023 ar
   767 1023 1029 ar
   768 1023 1024 ar
   769 1024 1026 ar
   770 1024 1025 1
   771 1026 1027 ar
   772 1027 1028 ar
   773 1028 1029 ar
   774  983 1008 1
   775 1041 1042 1
   776 1041 1043 1
   777 1041 1044 1
   778 1044 1045 1
   779 1045 1046 1
   780 1046 1048 1
   781 1046 1047 1
   782 1047 1052 1
   783 1048 1050 1
   784 1048 1049 1
   785 1050 1052 1
   786 1050 1051 1
   787 1052 1053 1
   788 1053 1062 ar
   789 1053 1054 ar
   790 1054 1055 ar
   791 1055 1056 ar
   792 1056 1062 ar
   793 1056 1057 ar
   794 1057 1059 ar
   795 1057 1058 1
   796 1059 1060 ar
   797 1060 1061 ar
   798 1061 1062 ar
   799 1016 1041 1
   800 1074 1075 1
   801 1074 1076 1
   802 1074 1077 1
   803 1077 1078 1
   804 1078 1079 1
   805 1079 1081 1
   806 1079 1080 1
   807 1080 1085 1
   808 1081 1083 1
   809 1081 1082 1
   810 1083 1084 1
   811 1083 1085 1
   812 1049 1074 1
   813 1094 1095 1
   814 1094 1096 1
   815 1094 1097 1
   816 1097 1098 1
   817 1098 1099 1
   818 1099 1101 1
   819 1099 1100 1
   820 1100 1105 1
   821 1101 1103 1
   822 1101 1102 1
   823 1103 1105 1
   824 1103 1104 1
   825 1105 1106 1
   826 1106 1115 ar
   827 1106 1107 ar
   828 1107 1108 ar
   829 1108 1109 ar
   830 1109 1115 ar
   831 1109 1110 ar
   832 1110 1112 ar
   833 1110 1111 1
   834 1112 1113 ar
   835 1113 1114 ar
   836 1114 1115 ar
   837 1082 1094 1
   838 1127 1129 1
   839 1127 1128 1
   840 1127 1130 1
   841 1130 1131 1
   842 1131 1132 1
   843 1132 1134 1
   844 1132 1133 1
   845 1133 1138 1
   846 1134 1135 1
   847 1134 1136 1
   848 1136 1138 1
   849 1136 1137 1
   850 1138 1139 1
   851 1139 1146 1
   852 1139 1140 am
   853 1140 1141 2
   854 1140 1142 1
   855 1142 1143 2
   856 1143 1144 2
   857 1143 1145 2
   858 1145 1146 2
   859 1102 1127 1
   860 1158 1160 1
   861 1158 1159 1
   862 1158 1161 1
   863 1161 1162 1
   864 1162 1163 1
   865 1163 1165 1
   866 1163 1164 1
   867 1164 1169 1
   868 1165 1166 1
   869 1165 1167 1
   870 1167 1169 1
   871 1167 1168 1
   872 1169 1170 1
   873 1170 1177 1
   874 1170 1171 am
   875 1171 1172 2
   876 1171 1173 1
   877 1173 1174 2
   878 1174 1175 2
   879 1174 1176 2
   880 1176 1177 2
   881 1135 1158 1
   882 1189 1191 1
   883 1189 1190 1
   884 1189 1192 1
   885 1192 1193 1
   886 1193 1194 1
   887 1194 1196 1
   888 1194 1195 1
   889 1195 1200 1
   890 1196 1197 1
   891 1196 1198 1
   892 1198 1200 1
   893 1198 1199 1
   894 1200 1201 1
   895 1201 1208 1
   896 1201 1202 am
   897 1202 1203 2
   898 1202 1204 1
   899 1204 1205 2
   900 1205 1206 2
   901 1205 1207 2
   902 1207 1208 2
   903 1166 1189 1
   904 1220 1221 1
   905 1220 1223 1
   906 1220 1222 1
   907 1223 1224 1
   908 1224 1225 1
   909 1225 1227 1
   910 1225 1226 1
   911 1226 1231 1
   912 1227 1228 1
   913 1227 1229 1
   914 1229 1231 1
   915 1229 1230 1
   916 1231 1232 1
   917 1232 1233 ar
   918 1232 1242 ar
   919 1233 1234 ar
   920 1234 1235 ar
   921 1235 1236 1
   922 1235 1242 ar
   923 1236 1238 am
   924 1236 1237 2
   925 1238 1239 1
   926 1239 1240 2
   927 1239 1241 2
   928 1241 1242 1
   929 1197 1220 1
   930 1254 1255 1
   931 1254 1256 1
   932 1254 1257 1
   933 1257 1258 1
   934 1258 1259 1
   935 1259 1261 1
   936 1259 1260 1
   937 1260 1265 1
   938 1261 1263 1
   939 1261 1262 1
   940 1263 1264 1
   941 1263 1265 1
   942 1265 1266 1
   943 1266 1267 am
   944 1266 1273 1
   945 1267 1268 2
   946 1267 1269 am
   947 1269 1270 am
   948 1270 1272 1
   949 1270 1271 2
   950 1272 1273 2
   951 1228 1254 1
   952 1284 1285 1
   953 1284 1286 1
   954 1284 1287 1
   955 1287 1288 1
   956 1288 1289 1
   957 1289 1291 1
   958 1289 1290 1
   959 1290 1295 1
   960 1291 1293 1
   961 1291 1292 1
   962 1293 1295 1
   963 1293 1294 1
   964 1295 1296 1
   965 1296 1305 ar
   966 1296 1297 ar
   967 1297 1298 ar
   968 1298 1299 ar
   969 1299 1305 ar
   970 1299 1300 ar
   971 1300 1302 ar
   972 1300 1301 1
   973 1302 1303 ar
   974 1303 1304 ar
   975 1304 1305 ar
   976 1262 1284 1
   977 1317 1318 1
   978 1317 1319 1
   979 1317 1320 1
   980 1320 1321 1
   981 1321 1322 1
   982 1322 1324 1
   983 1322 1323 1
   984 1323 1328 1
   985 1324 1326 1
   986 1324 1325 1
   987 1326 1327 1
   988 1326 1328 1
   989 1292 1317 1
   990 1337 1339 1
   991 1337 1338 1
   992 1337 1340 1
   993 1340 1341 1
   994 1341 1342 1
   995 1342 1344 1
   996 1342 1343 1
   997 1343 1348 1
   998 1344 1345 1
   999 1344 1346 1
  1000 1346 1348 1
  1001 1346 1347 1
  1002 1325 1337 1
  1003 1357 1358 1
  1004 1357 1359 1
  1005 1357 1360 1
  1006 1360 1361 1
  1007 1361 1362 1
  1008 1362 1364 1
  1009 1362 1363 1
  1010 1363 1368 1
  1011 1364 1366 1
  1012 1364 1365 1
  1013 1366 1368 1
  1014 1366 1367 1
  1015 1368 1369 1
  1016 1369 1378 ar
  1017 1369 1370 ar
  1018 1370 1371 ar
  1019 1371 1372 ar
  1020 1372 1378 ar
  1021 1372 1373 ar
  1022 1373 1375 ar
  1023 1373 1374 1
  1024 1375 1376 ar
  1025 1376 1377 ar
  1026 1377 1378 ar
  1027 1345 1357 1
  1028 1390 1392 1
  1029 1390 1391 1
  1030 1390 1393 1
  1031 1393 1394 1
  1032 1394 1395 1
  1033 1395 1397 1
  1034 1395 1396 1
  1035 1396 1401 1
  1036 1397 1398 1
  1037 1397 1399 1
  1038 1399 1401 1
  1039 1399 1400 1
  1040 1401 1402 1
  1041 1402 1409 1
  1042 1402 1403 am
  1043 1403 1404 2
  1044 1403 1405 1
  1045 1405 1406 2
  1046 1406 1407 2
  1047 1406 1408 2
  1048 1408 1409 2
  1049 1365 1390 1
  1050 1421 1423 1
  1051 1421 1422 1
  1052 1421 1424 1
  1053 1424 1425 1
  1054 1425 1426 1
  1055 1426 1428 1
  1056 1426 1427 1
  1057 1427 1432 1
  1058 1428 1429 1
  1059 1428 1430 1
  1060 1430 1432 1
  1061 1430 1431 1
  1062 1432 1433 1
  1063 1433 1440 1
  1064 1433 1434 am
  1065 1434 1435 2
  1066 1434 1436 1
  1067 1436 1437 2
  1068 1437 1438 2
  1069 1437 1439 2
  1070 1439 1440 2
  1071 1398 1421 1
  1072 1452 1453 1
  1073 1452 1454 1
  1074 1452 1455 1
  1075 1455 1456 1
  1076 1456 1457 1
  1077 1457 1459 1
  1078 1457 1458 1
  1079 1458 1463 1
  1080 1459 1461 1
  1081 1459 1460 1
  1082 1461 1462 1
  1083 1461 1463 1
  1084 1463 1464 1
  1085 1464 1465 am
  1086 1464 1471 1
  1087 1465 1466 2
  1088 1465 1467 am
  1089 1467 1468 am
  1090 1468 1470 1
  1091 1468 1469 2
  1092 1470 1471 2
  1093 1429 1452 1
  1094 1482 1483 1
  1095 1482 1485 1
  1096 1482 1484 1
  1097 1485 1486 1
  1098 1486 1487 1
  1099 1487 1489 1
  1100 1487 1488 1
  1101 1488 1493 1
  1102 1489 1490 1
  1103 1489 1491 1
  1104 1491 1493 1
  1105 1491 1492 1
  1106 1493 1494 1
  1107 1494 1495 ar
  1108 1494 1504 ar
  1109 1495 1496 ar
  1110 1496 1497 ar
  1111 1497 1498 1
  1112 1497 1504 ar
  1113 1498 1500 am
  1114 1498 1499 2
  1115 1500 1501 1
  1116 1501 1502 2
  1117 1501 1503 2
  1118 1503 1504 1
  1119 1460 1482 1
  1120 1516 1517 1
  1121 1516 1518 1
  1122 1516 1519 1
  1123 1519 1520 1
  1124 1520 1521 1
  1125 1521 1523 1
  1126 1521 1522 1
  1127 1522 1527 1
  1128 1523 1525 1
  1129 1523 1524 1
  1130 1525 1527 1
  1131 1525 1526 1
  1132 1527 1528 1
  1133 1528 1537 ar
  1134 1528 1529 ar
  1135 1529 1530 ar
  1136 1530 1531 ar
  1137 1531 1537 ar
  1138 1531 1532 ar
  1139 1532 1534 ar
  1140 1532 1533 1
  1141 1534 1535 ar
  1142 1535 1536 ar
  1143 1536 1537 ar
  1144 1490 1516 1
  1145 1549 1550 1
  1146 1549 1551 1
  1147 1549 1552 1
  1148 1552 1553 1
  1149 1553 1554 1
  1150 1554 1556 1
  1151 1554 1555 1
  1152 1555 1560 1
  1153 1556 1558 1
  1154 1556 1557 1
  1155 1558 1559 1
  1156 1558 1560 1
  1157 1560 1561 1
  1158 1561 1562 am
  1159 1561 1568 1
  1160 1562 1563 2
  1161 1562 1564 am
  1162 1564 1565 am
  1163 1565 1567 1
  1164 1565 1566 2
  1165 1567 1568 2
  1166 1524 1549 1
  1167 1579 1581 1
  1168 1579 1580 1
  1169 1579 1582 1
  1170 1582 1583 1
  1171 1583 1584 1
  1172 1584 1586 1
  1173 1584 1585 1
  1174 1585 1590 1
  1175 1586 1587 1
  1176 1586 1588 1
  1177 1588 1590 1
  1178 1588 1589 1
  1179 1590 1591 1
  1180 1591 1598 1
  1181 1591 1592 am
  1182 1592 1593 2
  1183 1592 1594 1
  1184 1594 1595 2
  1185 1595 1596 2
  1186 1595 1597 2
  1187 1597 1598 2
  1188 1557 1579 1
  1189 1610 1611 1
  1190 1610 1612 1
  1191 1610 1613 1
  1192 1613 1614 1
  1193 1614 1615 1
  1194 1615 1617 1
  1195 1615 1616 1
  1196 1616 1621 1
  1197 1617 1619 1
  1198 1617 1618 1
  1199 1619 1620 1
  1200 1619 1621 1
  1201 1621 1622 1
  1202 1622 1623 am
  1203 1622 1629 1
  1204 1623 1624 2
  1205 1623 1625 am
  1206 1625 1626 am
  1207 1626 1628 1
  1208 1626 1627 2
  1209 1628 1629 2
  1210 1587 1610 1
  1211 1640 1641 1
  1212 1640 1643 1
  1213 1640 1642 1
  1214 1643 1644 1
  1215 1644 1645 1
  1216 1645 1647 1
  1217 1645 1646 1
  1218 1646 1651 1
  1219 1647 1648 1
  1220 1647 1649 1
  1221 1649 1651 1
  1222 1649 1650 1
  1223 1651 1652 1
  1224 1652 1653 ar
  1225 1652 1662 ar
  1226 1653 1654 ar
  1227 1654 1655 ar
  1228 1655 1656 1
  1229 1655 1662 ar
  1230 1656 1658 am
  1231 1656 1657 2
  1232 1658 1659 1
  1233 1659 1660 2
  1234 1659 1661 2
  1235 1661 1662 1
  1236 1618 1640 1
  1237 1674 1675 1
  1238 1674 1677 1
  1239 1674 1676 1
  1240 1677 1678 1
  1241 1678 1679 1
  1242 1679 1681 1
  1243 1679 1680 1
  1244 1680 1685 1
  1245 1681 1682 1
  1246 1681 1683 1
  1247 1683 1685 1
  1248 1683 1684 1
  1249 1685 1686 1
  1250 1686 1687 ar
  1251 1686 1696 ar
  1252 1687 1688 ar
  1253 1688 1689 ar
  1254 1689 1690 1
  1255 1689 1696 ar
  1256 1690 1692 am
  1257 1690 1691 2
  1258 1692 1693 1
  1259 1693 1694 2
  1260 1693 1695 2
  1261 1695 1696 1
  1262 1648 1674 1
  1263 1708 1709 1
  1264 1708 1710 1
  1265 1708 1711 1
  1266 1711 1712 1
  1267 1712 1713 1
  1268 1713 1715 1
  1269 1713 1714 1
  1270 1714 1719 1
  1271 1715 1717 1
  1272 1715 1716 1
  1273 1717 1719 1
  1274 1717 1718 1
  1275 1719 1720 1
  1276 1720 1729 ar
  1277 1720 1721 ar
  1278 1721 1722 ar
  1279 1722 1723 ar
  1280 1723 1729 ar
  1281 1723 1724 ar
  1282 1724 1726 ar
  1283 1724 1725 1
  1284 1726 1727 ar
  1285 1727 1728 ar
  1286 1728 1729 ar
  1287 1682 1708 1
  1288 1741 1742 1
  1289 1741 1743 1
  1290 1741 1744 1
  1291 1744 1745 1
  1292 1745 1746 1
  1293 1746 1748 1
  1294 1746 1747 1
  1295 1747 1752 1
  1296 1748 1750 1
  1297 1748 1749 1
  1298 1750 1751 1
  1299 1750 1752 1
  1300 1752 1753 1
  1301 1753 1754 am
  1302 1753 1760 1
  1303 1754 1755 2
  1304 1754 1756 am
  1305 1756 1757 am
  1306 1757 1759 1
  1307 1757 1758 2
  1308 1759 1760 2
  1309 1716 1741 1
  1310 1771 1772 1
  1311 1771 1773 1
  1312 1771 1774 1
  1313 1774 1775 1
  1314 1775 1776 1
  1315 1776 1778 1
  1316 1776 1777 1
  1317 1777 1782 1
  1318 1778 1780 1
  1319 1778 1779 1
  1320 1780 1782 1
  1321 1780 1781 1
  1322 1782 1783 1
  1323 1783 1792 ar
  1324 1783 1784 ar
  1325 1784 1785 ar
  1326 1785 1786 ar
  1327 1786 1792 ar
  1328 1786 1787 ar
  1329 1787 1789 ar
  1330 1787 1788 1
  1331 1789 1790 ar
  1332 1790 1791 ar
  1333 1791 1792 ar
  1334 1749 1771 1
  1335 1804 1805 1
  1336 1804 1806 1
  1337 1804 1807 1
  1338 1807 1808 1
  1339 1808 1809 1
  1340 1809 1811 1
  1341 1809 1810 1
  1342 1810 1815 1
  1343 1811 1813 1
  1344 1811 1812 1
  1345 1813 1815 1
  1346 1813 1814 1
  1347 1815 1816 1
  1348 1816 1825 ar
  1349 1816 1817 ar
  1350 1817 1818 ar
  1351 1818 1819 ar
  1352 1819 1825 ar
  1353 1819 1820 ar
  1354 1820 1822 ar
  1355 1820 1821 1
  1356 1822 1823 ar
  1357 1823 1824 ar
  1358 1824 1825 ar
  1359 1779 1804 1
  1360 1837 1838 1
  1361 1837 1839 1
  1362 1837 1840 1
  1363 1840 1841 1
  1364 1841 1842 1
  1365 1842 1844 1
  1366 1842 1843 1
  1367 1843 1848 1
  1368 1844 1846 1
  1369 1844 1845 1
  1370 1846 1847 1
  1371 1846 1848 1
  1372 1848 1849 1
  1373 1849 1850 am
  1374 1849 1856 1
  1375 1850 1851 2
  1376 1850 1852 am
  1377 1852 1853 am
  1378 1853 1855 1
  1379 1853 1854 2
  1380 1855 1856 2
  1381 1812 1837 1
  1382 1867 1868 1
  1383 1867 1870 1
  1384 1867 1869 1
  1385 1870 1871 1
  1386 1871 1872 1
  1387 1872 1874 1
  1388 1872 1873 1
  1389 1873 1878 1
  1390 1874 1875 1
  1391 1874 1876 1
  1392 1876 1878 1
  1393 1876 1877 1
  1394 1878 1879 1
  1395 1879 1880 ar
  1396 1879 1889 ar
  1397 1880 1881 ar
  1398 1881 1882 ar
  1399 1882 1883 1
  1400 1882 1889 ar
  1401 1883 1885 am
  1402 1883 1884 2
  1403 1885 1886 1
  1404 1886 1887 2
  1405 1886 1888 2
  1406 1888 1889 1
  1407 1845 1867 1
  1408 1901 1903 1
  1409 1901 1902 1
  1410 1901 1904 1
  1411 1904 1905 1
  1412 1905 1906 1
  1413 1906 1908 1
  1414 1906 1907 1
  1415 1907 1912 1
  1416 1908 1909 1
  1417 1908 1910 1
  1418 1910 1912 1
  1419 1910 1911 1
  1420 1912 1913 1
  1421 1913 1920 1
  1422 1913 1914 am
  1423 1914 1915 2
  1424 1914 1916 1
  1425 1916 1917 2
  1426 1917 1918 2
  1427 1917 1919 2
  1428 1919 1920 2
  1429 1875 1901 1
  1430 1932 1934 1
  1431 1932 1933 1
  1432 1932 1935 1
  1433 1935 1936 1
  1434 1936 1937 1
  1435 1937 1939 1
  1436 1937 1938 1
  1437 1938 1943 1
  1438 1939 1940 1
  1439 1939 1941 1
  1440 1941 1943 1
  1441 1941 1942 1
  1442 1943 1944 1
  1443 1944 1951 1
  1444 1944 1945 am
  1445 1945 1946 2
  1446 1945 1947 1
  1447 1947 1948 2
  1448 1948 1949 2
  1449 1948 1950 2
  1450 1950 1951 2
  1451 1909 1932 1
  1452 1963 1964 1
  1453 1963 1965 1
  1454 1963 1966 1
  1455 1966 1967 1
  1456 1967 1968 1
  1457 1968 1970 1
  1458 1968 1969 1
  1459 1969 1974 1
  1460 1970 1972 1
  1461 1970 1971 1
  1462 1972 1974 1
  1463 1972 1973 1
  1464 1974 1975 1
  1465 1975 1984 ar
  1466 1975 1976 ar
  1467 1976 1977 ar
  1468 1977 1978 ar
  1469 1978 1984 ar
  1470 1978 1979 ar
  1471 1979 1981 ar
  1472 1979 1980 1
  1473 1981 1982 ar
  1474 1982 1983 ar
  1475 1983 1984 ar
  1476 1940 1963 1
  1477 1996 1997 1
  1478 1996 1999 1
  1479 1996 1998 1
  1480 1999 2000 1
  1481 2000 2001 1
  1482 2001 2003 1
  1483 2001 2002 1
  1484 2002 2007 1
  1485 2003 2004 1
  1486 2003 2005 1
  1487 2005 2007 1
  1488 2005 2006 1
  1489 2007 2008 1
  1490 2008 2009 ar
  1491 2008 2018 ar
  1492 2009 2010 ar
  1493 2010 2011 ar
  1494 2011 2012 1
  1495 2011 2018 ar
  1496 2012 2014 am
  1497 2012 2013 2
  1498 2014 2015 1
  1499 2015 2016 2
  1500 2015 2017 2
  1501 2017 2018 1
  1502 1971 1996 1
  1503 2030 2032 1
  1504 2030 2031 1
  1505 2030 2033 1
  1506 2033 2034 1
  1507 2034 2035 1
  1508 2035 2037 1
  1509 2035 2036 1
  1510 2036 2041 1
  1511 2037 2038 1
  1512 2037 2039 1
  1513 2039 2041 1
  1514 2039 2040 1
  1515 2041 2042 1
  1516 2042 2049 1
  1517 2042 2043 am
  1518 2043 2044 2
  1519 2043 2045 1
  1520 2045 2046 2
  1521 2046 2047 2
  1522 2046 2048 2
  1523 2048 2049 2
  1524 2004 2030 1
  1525 2061 2062 1
  1526 2061 2064 1
  1527 2061 2063 1
  1528 2064 2065 1
  1529 2065 2066 1
  1530 2066 2068 1
  1531 2066 2067 1
  1532 2067 2072 1
  1533 2068 2069 1
  1534 2068 2070 1
  1535 2070 2072 1
  1536 2070 2071 1
  1537 2072 2073 1
  1538 2073 2074 ar
  1539 2073 2083 ar
  1540 2074 2075 ar
  1541 2075 2076 ar
  1542 2076 2077 1
  1543 2076 2083 ar
  1544 2077 2079 am
  1545 2077 2078 2
  1546 2079 2080 1
  1547 2080 2081 2
  1548 2080 2082 2
  1549 2082 2083 1
  1550 2038 2061 1
  1551 2095 2096 1
  1552 2095 2097 1
  1553 2095 2098 1
  1554 2098 2099 1
  1555 2099 2100 1
  1556 2100 2102 1
  1557 2100 2101 1
  1558 2101 2106 1
  1559 2102 2104 1
  1560 2102 2103 1
  1561 2104 2105 1
  1562 2104 2106 1
  1563 2069 2095 1
  1564 2115 2116 1
  1565 2115 2117 1
  1566 2115 2118 1
  1567 2118 2119 1
  1568 2119 2120 1
  1569 2120 2122 1
  1570 2120 2121 1
  1571 2121 2126 1
  1572 2122 2124 1
  1573 2122 2123 1
  1574 2124 2126 1
  1575 2124 2125 1
  1576 2126 2127 1
  1577 2127 2136 ar
  1578 2127 2128 ar
  1579 2128 2129 ar
  1580 2129 2130 ar
  1581 2130 2136 ar
  1582 2130 2131 ar
  1583 2131 2133 ar
  1584 2131 2132 1
  1585 2133 2134 ar
  1586 2134 2135 ar
  1587 2135 2136 ar
  1588 2103 2115 1
  1589 2148 2149 1
  1590 2148 2151 1
  1591 2148 2150 1
  1592 2151 2152 1
  1593 2152 2153 1
  1594 2153 2155 1
  1595 2153 2154 1
  1596 2154 2159 1
  1597 2155 2156 1
  1598 2155 2157 1
  1599 2157 2159 1
  1600 2157 2158 1
  1601 2159 2160 1
  1602 2160 2161 ar
  1603 2160 2170 ar
  1604 2161 2162 ar
  1605 2162 2163 ar
  1606 2163 2164 1
  1607 2163 2170 ar
  1608 2164 2166 am
  1609 2164 2165 2
  1610 2166 2167 1
  1611 2167 2168 2
  1612 2167 2169 2
  1613 2169 2170 1
  1614 2123 2148 1
  1615 2182 2183 1
  1616 2182 2185 1
  1617 2182 2184 1
  1618 2185 2186 1
  1619 2186 2187 1
  1620 2187 2189 1
  1621 2187 2188 1
  1622 2188 2193 1
  1623 2189 2190 1
  1624 2189 2191 1
  1625 2191 2193 1
  1626 2191 2192 1
  1627 2193 2194 1
  1628 2194 2195 ar
  1629 2194 2204 ar
  1630 2195 2196 ar
  1631 2196 2197 ar
  1632 2197 2198 1
  1633 2197 2204 ar
  1634 2198 2200 am
  1635 2198 2199 2
  1636 2200 2201 1
  1637 2201 2202 2
  1638 2201 2203 2
  1639 2203 2204 1
  1640 2156 2182 1
  1641 2216 2217 1
  1642 2216 2219 1
  1643 2216 2218 1
  1644 2219 2220 1
  1645 2220 2221 1
  1646 2221 2223 1
  1647 2221 2222 1
  1648 2222 2227 1
  1649 2223 2224 1
  1650 2223 2225 1
  1651 2225 2227 1
  1652 2225 2226 1
  1653 2227 2228 1
  1654 2228 2229 ar
  1655 2228 2238 ar
  1656 2229 2230 ar
  1657 2230 2231 ar
  1658 2231 2232 1
  1659 2231 2238 ar
  1660 2232 2234 am
  1661 2232 2233 2
  1662 2234 2235 1
  1663 2235 2236 2
  1664 2235 2237 2
  1665 2237 2238 1
  1666 2190 2216 1
  1667 2250 2251 1
  1668 2250 2252 1
  1669 2250 2253 1
  1670 2253 2254 1
  1671 2254 2255 1
  1672 2255 2257 1
  1673 2255 2256 1
  1674 2256 2261 1
  1675 2257 2259 1
  1676 2257 2258 1
  1677 2259 2261 1
  1678 2259 2260 1
  1679 2261 2262 1
  1680 2262 2271 ar
  1681 2262 2263 ar
  1682 2263 2264 ar
  1683 2264 2265 ar
  1684 2265 2271 ar
  1685 2265 2266 ar
  1686 2266 2268 ar
  1687 2266 2267 1
  1688 2268 2269 ar
  1689 2269 2270 ar
  1690 2270 2271 ar
  1691 2224 2250 1
  1692 2283 2284 1
  1693 2283 2285 1
  1694 2283 2286 1
  1695 2286 2287 1
  1696 2287 2288 1
  1697 2288 2290 1
  1698 2288 2289 1
  1699 2289 2294 1
  1700 2290 2292 1
  1701 2290 2291 1
  1702 2292 2294 1
  1703 2292 2293 1
  1704 2294 2295 1
  1705 2295 2304 ar
  1706 2295 2296 ar
  1707 2296 2297 ar
  1708 2297 2298 ar
  1709 2298 2304 ar
  1710 2298 2299 ar
  1711 2299 2301 ar
  1712 2299 2300 1
  1713 2301 2302 ar
  1714 2302 2303 ar
  1715 2303 2304 ar
  1716 2258 2283 1
  1717 2316 2317 1
  1718 2316 2319 1
  1719 2316 2318 1
  1720 2319 2320 1
  1721 2320 2321 1
  1722 2321 2323 1
  1723 2321 2322 1
  1724 2322 2327 1
  1725 2323 2324 1
  1726 2323 2325 1
  1727 2325 2327 1
  1728 2325 2326 1
  1729 2327 2328 1
  1730 2328 2329 ar
  1731 2328 2338 ar
  1732 2329 2330 ar
  1733 2330 2331 ar
  1734 2331 2332 1
  1735 2331 2338 ar
  1736 2332 2334 am
  1737 2332 2333 2
  1738 2334 2335 1
  1739 2335 2336 2
  1740 2335 2337 2
  1741 2337 2338 1
  1742 2291 2316 1
  1743 2350 2351 1
  1744 2350 2352 1
  1745 2350 2353 1
  1746 2353 2354 1
  1747 2354 2355 1
  1748 2355 2357 1
  1749 2355 2356 1
  1750 2356 2361 1
  1751 2357 2359 1
  1752 2357 2358 1
  1753 2359 2360 1
  1754 2359 2361 1
  1755 2361 2362 1
  1756 2362 2363 am
  1757 2362 2369 1
  1758 2363 2364 2
  1759 2363 2365 am
  1760 2365 2366 am
  1761 2366 2368 1
  1762 2366 2367 2
  1763 2368 2369 2
  1764 2324 2350 1
  1765 2380 2382 1
  1766 2380 2381 1
  1767 2380 2383 1
  1768 2383 2384 1
  1769 2384 2385 1
  1770 2385 2387 1
  1771 2385 2386 1
  1772 2386 2391 1
  1773 2387 2388 1
  1774 2387 2389 1
  1775 2389 2391 1
  1776 2389 2390 1
  1777 2391 2392 1
  1778 2392 2399 1
  1779 2392 2393 am
  1780 2393 2394 2
  1781 2393 2395 1
  1782 2395 2396 2
  1783 2396 2397 2
  1784 2396 2398 2
  1785 2398 2399 2
  1786 2358 2380 1
  1787 2411 2412 1
  1788 2411 2414 1
  1789 2411 2413 1
  1790 2414 2415 1
  1791 2415 2416 1
  1792 2416 2418 1
  1793 2416 2417 1
  1794 2417 2422 1
  1795 2418 2419 1
  1796 2418 2420 1
  1797 2420 2422 1
  1798 2420 2421 1
  1799 2422 2423 1
  1800 2423 2424 ar
  1801 2423 2433 ar
  1802 2424 2425 ar
  1803 2425 2426 ar
  1804 2426 2427 1
  1805 2426 2433 ar
  1806 2427 2429 am
  1807 2427 2428 2
  1808 2429 2430 1
  1809 2430 2431 2
  1810 2430 2432 2
  1811 2432 2433 1
  1812 2388 2411 1
  1813 2448 2449 1
  1814 2449 2450 1
  1815 2450 2452 1
  1816 2450 2451 1
  1817 2451 2456 1
  1818 2452 2454 1
  1819 2452 2453 1
  1820 2454 2455 1
  1821 2454 2456 1
  1822 2456 2457 1
  1823 2457 2464 1
  1824 2457 2458 am
  1825 2458 2459 2
  1826 2458 2460 1
  1827 2460 2461 2
  1828 2461 2463 2
  1829 2461 2462 2
  1830 2463 2464 2
  1831 2445 2446 1
  1832 2445 2447 1
  1833 2445 2448 1
  1834 2419 2445 1
  1835   21    2 1
  1836   22    2 1
  1837   23    3 1
  1838   24    5 1
  1839   25    7 1
  1840   26    9 1
  1841   27   11 1
  1842   28   16 1
  1843   53   37 1
  1844   54   37 1
  1845   55   38 1
  1846   56   40 1
  1847   57   42 1
  1848   58   44 1
  1849   59   51 1
  1850   60   52 1
  1851   87   68 1
  1852   88   68 1
  1853   89   69 1
  1854   90   71 1
  1855   91   73 1
  1856   92   75 1
  1857   93   77 1
  1858   94   82 1
  1859  120  102 1
  1860  121  102 1
  1861  122  103 1
  1862  123  105 1
  1863  124  107 1
  1864  125  109 1
  1865  126  111 1
  1866  127  117 1
  1867  151  135 1
  1868  152  135 1
  1869  153  136 1
  1870  154  138 1
  1871  155  140 1
  1872  156  142 1
  1873  157  149 1
  1874  158  150 1
  1875  182  166 1
  1876  183  166 1
  1877  184  167 1
  1878  185  169 1
  1879  186  171 1
  1880  187  173 1
  1881  188  177 1
  1882  189  180 1
  1883  190  181 1
  1884  212  196 1
  1885  213  196 1
  1886  214  197 1
  1887  215  199 1
  1888  216  201 1
  1889  217  203 1
  1890  218  210 1
  1891  219  211 1
  1892  246  227 1
  1893  247  227 1
  1894  248  228 1
  1895  249  230 1
  1896  250  232 1
  1897  251  234 1
  1898  252  236 1
  1899  253  241 1
  1900  280  261 1
  1901  281  261 1
  1902  282  262 1
  1903  283  264 1
  1904  284  266 1
  1905  285  268 1
  1906  286  270 1
  1907  287  275 1
  1908  314  295 1
  1909  315  295 1
  1910  316  296 1
  1911  317  298 1
  1912  318  300 1
  1913  319  302 1
  1914  320  304 1
  1915  321  309 1
  1916  348  329 1
  1917  349  329 1
  1918  350  330 1
  1919  351  332 1
  1920  352  334 1
  1921  353  336 1
  1922  354  338 1
  1923  355  343 1
  1924  379  363 1
  1925  380  363 1
  1926  381  364 1
  1927  382  366 1
  1928  383  368 1
  1929  384  370 1
  1930  385  374 1
  1931  386  377 1
  1932  387  378 1
  1933  412  393 1
  1934  413  393 1
  1935  414  394 1
  1936  415  396 1
  1937  416  398 1
  1938  417  400 1
  1939  418  402 1
  1940  419  407 1
  1941  443  427 1
  1942  444  427 1
  1943  445  428 1
  1944  446  430 1
  1945  447  432 1
  1946  448  434 1
  1947  449  441 1
  1948  450  442 1
  1949  474  458 1
  1950  475  458 1
  1951  476  459 1
  1952  477  461 1
  1953  478  463 1
  1954  479  465 1
  1955  480  472 1
  1956  481  473 1
  1957  505  489 1
  1958  506  489 1
  1959  507  490 1
  1960  508  492 1
  1961  509  494 1
  1962  510  496 1
  1963  511  503 1
  1964  512  504 1
  1965  536  520 1
  1966  537  520 1
  1967  538  521 1
  1968  539  523 1
  1969  540  525 1
  1970  541  527 1
  1971  542  531 1
  1972  543  534 1
  1973  544  535 1
  1974  570  554 1
  1975  571  554 1
  1976  572  555 1
  1977  573  557 1
  1978  574  559 1
  1979  575  561 1
  1980  576  568 1
  1981  577  569 1
  1982  604  585 1
  1983  605  585 1
  1984  606  586 1
  1985  607  588 1
  1986  608  590 1
  1987  609  592 1
  1988  610  594 1
  1989  611  599 1
  1990  635  619 1
  1991  636  619 1
  1992  637  620 1
  1993  638  622 1
  1994  639  624 1
  1995  640  626 1
  1996  641  630 1
  1997  642  633 1
  1998  643  634 1
  1999  668  649 1
  2000  669  649 1
  2001  670  650 1
  2002  671  652 1
  2003  672  654 1
  2004  673  656 1
  2005  674  658 1
  2006  675  663 1
  2007  701  683 1
  2008  702  683 1
  2009  703  684 1
  2010  704  686 1
  2011  705  688 1
  2012  706  690 1
  2013  707  692 1
  2014  708  698 1
  2015  734  716 1
  2016  735  716 1
  2017  736  717 1
  2018  737  719 1
  2019  738  721 1
  2020  739  723 1
  2021  740  725 1
  2022  741  731 1
  2023  768  749 1
  2024  769  749 1
  2025  770  750 1
  2026  771  752 1
  2027  772  754 1
  2028  773  756 1
  2029  774  758 1
  2030  775  763 1
  2031  802  783 1
  2032  803  783 1
  2033  804  784 1
  2034  805  786 1
  2035  806  788 1
  2036  807  790 1
  2037  808  792 1
  2038  809  797 1
  2039  833  817 1
  2040  834  817 1
  2041  835  818 1
  2042  836  820 1
  2043  837  822 1
  2044  838  824 1
  2045  839  831 1
  2046  840  832 1
  2047  864  848 1
  2048  865  848 1
  2049  866  849 1
  2050  867  851 1
  2051  868  853 1
  2052  869  855 1
  2053  870  859 1
  2054  871  862 1
  2055  872  863 1
  2056  897  878 1
  2057  898  878 1
  2058  899  879 1
  2059  900  881 1
  2060  901  883 1
  2061  902  885 1
  2062  903  887 1
  2063  904  892 1
  2064  930  912 1
  2065  931  912 1
  2066  932  913 1
  2067  933  915 1
  2068  934  917 1
  2069  935  919 1
  2070  936  921 1
  2071  937  927 1
  2072  964  945 1
  2073  965  945 1
  2074  966  946 1
  2075  967  948 1
  2076  968  950 1
  2077  969  952 1
  2078  970  954 1
  2079  971  959 1
  2080  997  979 1
  2081  998  979 1
  2082  999  980 1
  2083 1000  982 1
  2084 1001  984 1
  2085 1002  986 1
  2086 1003  988 1
  2087 1004  994 1
  2088 1030 1012 1
  2089 1031 1012 1
  2090 1032 1013 1
  2091 1033 1015 1
  2092 1034 1017 1
  2093 1035 1019 1
  2094 1036 1021 1
  2095 1037 1027 1
  2096 1063 1045 1
  2097 1064 1045 1
  2098 1065 1046 1
  2099 1066 1048 1
  2100 1067 1050 1
  2101 1068 1052 1
  2102 1069 1054 1
  2103 1070 1060 1
  2104 1086 1078 1
  2105 1087 1078 1
  2106 1088 1079 1
  2107 1089 1081 1
  2108 1090 1083 1
  2109 1091 1085 1
  2110 1092 1085 1
  2111 1116 1098 1
  2112 1117 1098 1
  2113 1118 1099 1
  2114 1119 1101 1
  2115 1120 1103 1
  2116 1121 1105 1
  2117 1122 1107 1
  2118 1123 1113 1
  2119 1147 1131 1
  2120 1148 1131 1
  2121 1149 1132 1
  2122 1150 1134 1
  2123 1151 1136 1
  2124 1152 1138 1
  2125 1153 1145 1
  2126 1154 1146 1
  2127 1178 1162 1
  2128 1179 1162 1
  2129 1180 1163 1
  2130 1181 1165 1
  2131 1182 1167 1
  2132 1183 1169 1
  2133 1184 1176 1
  2134 1185 1177 1
  2135 1209 1193 1
  2136 1210 1193 1
  2137 1211 1194 1
  2138 1212 1196 1
  2139 1213 1198 1
  2140 1214 1200 1
  2141 1215 1207 1
  2142 1216 1208 1
  2143 1243 1224 1
  2144 1244 1224 1
  2145 1245 1225 1
  2146 1246 1227 1
  2147 1247 1229 1
  2148 1248 1231 1
  2149 1249 1233 1
  2150 1250 1238 1
  2151 1274 1258 1
  2152 1275 1258 1
  2153 1276 1259 1
  2154 1277 1261 1
  2155 1278 1263 1
  2156 1279 1265 1
  2157 1280 1269 1
  2158 1281 1272 1
  2159 1282 1273 1
  2160 1306 1288 1
  2161 1307 1288 1
  2162 1308 1289 1
  2163 1309 1291 1
  2164 1310 1293 1
  2165 1311 1295 1
  2166 1312 1297 1
  2167 1313 1303 1
  2168 1329 1321 1
  2169 1330 1321 1
  2170 1331 1322 1
  2171 1332 1324 1
  2172 1333 1326 1
  2173 1334 1328 1
  2174 1335 1328 1
  2175 1349 1341 1
  2176 1350 1341 1
  2177 1351 1342 1
  2178 1352 1344 1
  2179 1353 1346 1
  2180 1354 1348 1
  2181 1355 1348 1
  2182 1379 1361 1
  2183 1380 1361 1
  2184 1381 1362 1
  2185 1382 1364 1
  2186 1383 1366 1
  2187 1384 1368 1
  2188 1385 1370 1
  2189 1386 1376 1
  2190 1410 1394 1
  2191 1411 1394 1
  2192 1412 1395 1
  2193 1413 1397 1
  2194 1414 1399 1
  2195 1415 1401 1
  2196 1416 1408 1
  2197 1417 1409 1
  2198 1441 1425 1
  2199 1442 1425 1
  2200 1443 1426 1
  2201 1444 1428 1
  2202 1445 1430 1
  2203 1446 1432 1
  2204 1447 1439 1
  2205 1448 1440 1
  2206 1472 1456 1
  2207 1473 1456 1
  2208 1474 1457 1
  2209 1475 1459 1
  2210 1476 1461 1
  2211 1477 1463 1
  2212 1478 1467 1
  2213 1479 1470 1
  2214 1480 1471 1
  2215 1505 1486 1
  2216 1506 1486 1
  2217 1507 1487 1
  2218 1508 1489 1
  2219 1509 1491 1
  2220 1510 1493 1
  2221 1511 1495 1
  2222 1512 1500 1
  2223 1538 1520 1
  2224 1539 1520 1
  2225 1540 1521 1
  2226 1541 1523 1
  2227 1542 1525 1
  2228 1543 1527 1
  2229 1544 1529 1
  2230 1545 1535 1
  2231 1569 1553 1
  2232 1570 1553 1
  2233 1571 1554 1
  2234 1572 1556 1
  2235 1573 1558 1
  2236 1574 1560 1
  2237 1575 1564 1
  2238 1576 1567 1
  2239 1577 1568 1
  2240 1599 1583 1
  2241 1600 1583 1
  2242 1601 1584 1
  2243 1602 1586 1
  2244 1603 1588 1
  2245 1604 1590 1
  2246 1605 1597 1
  2247 1606 1598 1
  2248 1630 1614 1
  2249 1631 1614 1
  2250 1632 1615 1
  2251 1633 1617 1
  2252 1634 1619 1
  2253 1635 1621 1
  2254 1636 1625 1
  2255 1637 1628 1
  2256 1638 1629 1
  2257 1663 1644 1
  2258 1664 1644 1
  2259 1665 1645 1
  2260 1666 1647 1
  2261 1667 1649 1
  2262 1668 1651 1
  2263 1669 1653 1
  2264 1670 1658 1
  2265 1697 1678 1
  2266 1698 1678 1
  2267 1699 1679 1
  2268 1700 1681 1
  2269 1701 1683 1
  2270 1702 1685 1
  2271 1703 1687 1
  2272 1704 1692 1
  2273 1730 1712 1
  2274 1731 1712 1
  2275 1732 1713 1
  2276 1733 1715 1
  2277 1734 1717 1
  2278 1735 1719 1
  2279 1736 1721 1
  2280 1737 1727 1
  2281 1761 1745 1
  2282 1762 1745 1
  2283 1763 1746 1
  2284 1764 1748 1
  2285 1765 1750 1
  2286 1766 1752 1
  2287 1767 1756 1
  2288 1768 1759 1
  2289 1769 1760 1
  2290 1793 1775 1
  2291 1794 1775 1
  2292 1795 1776 1
  2293 1796 1778 1
  2294 1797 1780 1
  2295 1798 1782 1
  2296 1799 1784 1
  2297 1800 1790 1
  2298 1826 1808 1
  2299 1827 1808 1
  2300 1828 1809 1
  2301 1829 1811 1
  2302 1830 1813 1
  2303 1831 1815 1
  2304 1832 1817 1
  2305 1833 1823 1
  2306 1857 1841 1
  2307 1858 1841 1
  2308 1859 1842 1
  2309 1860 1844 1
  2310 1861 1846 1
  2311 1862 1848 1
  2312 1863 1852 1
  2313 1864 1855 1
  2314 1865 1856 1
  2315 1890 1871 1
  2316 1891 1871 1
  2317 1892 1872 1
  2318 1893 1874 1
  2319 1894 1876 1
  2320 1895 1878 1
  2321 1896 1880 1
  2322 1897 1885 1
  2323 1921 1905 1
  2324 1922 1905 1
  2325 1923 1906 1
  2326 1924 1908 1
  2327 1925 1910 1
  2328 1926 1912 1
  2329 1927 1919 1
  2330 1928 1920 1
  2331 1952 1936 1
  2332 1953 1936 1
  2333 1954 1937 1
  2334 1955 1939 1
  2335 1956 1941 1
  2336 1957 1943 1
  2337 1958 1950 1
  2338 1959 1951 1
  2339 1985 1967 1
  2340 1986 1967 1
  2341 1987 1968 1
  2342 1988 1970 1
  2343 1989 1972 1
  2344 1990 1974 1
  2345 1991 1976 1
  2346 1992 1982 1
  2347 2019 2000 1
  2348 2020 2000 1
  2349 2021 2001 1
  2350 2022 2003 1
  2351 2023 2005 1
  2352 2024 2007 1
  2353 2025 2009 1
  2354 2026 2014 1
  2355 2050 2034 1
  2356 2051 2034 1
  2357 2052 2035 1
  2358 2053 2037 1
  2359 2054 2039 1
  2360 2055 2041 1
  2361 2056 2048 1
  2362 2057 2049 1
  2363 2084 2065 1
  2364 2085 2065 1
  2365 2086 2066 1
  2366 2087 2068 1
  2367 2088 2070 1
  2368 2089 2072 1
  2369 2090 2074 1
  2370 2091 2079 1
  2371 2107 2099 1
  2372 2108 2099 1
  2373 2109 2100 1
  2374 2110 2102 1
  2375 2111 2104 1
  2376 2112 2106 1
  2377 2113 2106 1
  2378 2137 2119 1
  2379 2138 2119 1
  2380 2139 2120 1
  2381 2140 2122 1
  2382 2141 2124 1
  2383 2142 2126 1
  2384 2143 2128 1
  2385 2144 2134 1
  2386 2171 2152 1
  2387 2172 2152 1
  2388 2173 2153 1
  2389 2174 2155 1
  2390 2175 2157 1
  2391 2176 2159 1
  2392 2177 2161 1
  2393 2178 2166 1
  2394 2205 2186 1
  2395 2206 2186 1
  2396 2207 2187 1
  2397 2208 2189 1
  2398 2209 2191 1
  2399 2210 2193 1
  2400 2211 2195 1
  2401 2212 2200 1
  2402 2239 2220 1
  2403 2240 2220 1
  2404 2241 2221 1
  2405 2242 2223 1
  2406 2243 2225 1
  2407 2244 2227 1
  2408 2245 2229 1
  2409 2246 2234 1
  2410 2272 2254 1
  2411 2273 2254 1
  2412 2274 2255 1
  2413 2275 2257 1
  2414 2276 2259 1
  2415 2277 2261 1
  2416 2278 2263 1
  2417 2279 2269 1
  2418 2305 2287 1
  2419 2306 2287 1
  2420 2307 2288 1
  2421 2308 2290 1
  2422 2309 2292 1
  2423 2310 2294 1
  2424 2311 2296 1
  2425 2312 2302 1
  2426 2339 2320 1
  2427 2340 2320 1
  2428 2341 2321 1
  2429 2342 2323 1
  2430 2343 2325 1
  2431 2344 2327 1
  2432 2345 2329 1
  2433 2346 2334 1
  2434 2370 2354 1
  2435 2371 2354 1
  2436 2372 2355 1
  2437 2373 2357 1
  2438 2374 2359 1
  2439 2375 2361 1
  2440 2376 2365 1
  2441 2377 2368 1
  2442 2378 2369 1
  2443 2400 2384 1
  2444 2401 2384 1
  2445 2402 2385 1
  2446 2403 2387 1
  2447 2404 2389 1
  2448 2405 2391 1
  2449 2406 2398 1
  2450 2407 2399 1
  2451 2434 2415 1
  2452 2435 2415 1
  2453 2436 2416 1
  2454 2437 2418 1
  2455 2438 2420 1
  2456 2439 2422 1
  2457 2440 2424 1
  2458 2441 2429 1
  2459 2465 2449 1
  2460 2466 2449 1
  2461 2467 2450 1
  2462 2468 2452 1
  2463 2469 2454 1
  2464 2470 2456 1
  2465 2471 2463 1
  2466 2472 2464 1
  2467   29   18 1
  2468   30   18 1
  2469   61   50 1
  2470   62   50 1
  2471   95   84 1
  2472   96   84 1
  2473  159  148 1
  2474  160  148 1
  2475  220  209 1
  2476  221  209 1
  2477  254  243 1
  2478  255  243 1
  2479  288  277 1
  2480  289  277 1
  2481  322  311 1
  2482  323  311 1
  2483  356  345 1
  2484  357  345 1
  2485  420  409 1
  2486  421  409 1
  2487  451  440 1
  2488  452  440 1
  2489  482  471 1
  2490  483  471 1
  2491  513  502 1
  2492  514  502 1
  2493  578  567 1
  2494  579  567 1
  2495  612  601 1
  2496  613  601 1
  2497  676  665 1
  2498  677  665 1
  2499  776  765 1
  2500  777  765 1
  2501  810  799 1
  2502  811  799 1
  2503  841  830 1
  2504  842  830 1
  2505  905  894 1
  2506  906  894 1
  2507  972  961 1
  2508  973  961 1
  2509 1155 1144 1
  2510 1156 1144 1
  2511 1186 1175 1
  2512 1187 1175 1
  2513 1217 1206 1
  2514 1218 1206 1
  2515 1251 1240 1
  2516 1252 1240 1
  2517 1418 1407 1
  2518 1419 1407 1
  2519 1449 1438 1
  2520 1450 1438 1
  2521 1513 1502 1
  2522 1514 1502 1
  2523 1607 1596 1
  2524 1608 1596 1
  2525 1671 1660 1
  2526 1672 1660 1
  2527 1705 1694 1
  2528 1706 1694 1
  2529 1898 1887 1
  2530 1899 1887 1
  2531 1929 1918 1
  2532 1930 1918 1
  2533 1960 1949 1
  2534 1961 1949 1
  2535 2027 2016 1
  2536 2028 2016 1
  2537 2058 2047 1
  2538 2059 2047 1
  2539 2092 2081 1
  2540 2093 2081 1
  2541 2179 2168 1
  2542 2180 2168 1
  2543 2213 2202 1
  2544 2214 2202 1
  2545 2247 2236 1
  2546 2248 2236 1
  2547 2347 2336 1
  2548 2348 2336 1
  2549 2408 2397 1
  2550 2409 2397 1
  2551 2442 2431 1
  2552 2443 2431 1
  2553 2473 2462 1
  2554 2474 2462 1
  2555  515  495 1
  2556 1038 1018 1
  2557 1900 1877 1
  2558 2094 2071 1
  2559  678  655 1
  2560 1283 1264 1
  2561 1157 1137 1
  2562 1219 1199 1
  2563 2114 2105 1
  2564  644  625 1
  2565 1578 1559 1
  2566 1609 1589 1
  2567  907  884 1
  2568 1770 1751 1
  2569  453  433 1
  2570 1834 1814 1
  2571 2379 2360 1
  2572  222  202 1
  2573   97   74 1
  2574 1931 1911 1
  2575 1093 1084 1
  2576 1005  985 1
  2577  290  267 1
  2578 1451 1431 1
  2579  128  108 1
  2580 1546 1526 1
  2581 1314 1294 1
  2582  873  854 1
  2583 1188 1168 1
  2584  191  172 1
  2585 1993 1973 1
  2586 1866 1847 1
  2587 2444 2421 1
  2588   31    8 1
  2589 2410 2390 1
  2590 2060 2040 1
  2591 1071 1051 1
  2592  161  141 1
  2593 1124 1104 1
  2594  938  918 1
  2595  580  560 1
  2596  843  823 1
  2597 1962 1942 1
  2598 2280 2260 1
  2599 1420 1400 1
  2600 1006  992 1
  2601 1007  992 1
  2602  742  729 1
  2603  743  729 1
  2604 1315 1301 1
  2605 1316 1301 1
  2606 1125 1111 1
  2607 1126 1111 1
  2608  709  696 1
  2609  710  696 1
  2610 1738 1725 1
  2611 1739 1725 1
  2612 1801 1788 1
  2613 1802 1788 1
  2614 2145 2132 1
  2615 2146 2132 1
  2616 2313 2300 1
  2617 2314 2300 1
  2618  939  925 1
  2619  940  925 1
  2620 1072 1058 1
  2621 1073 1058 1
  2622  129  115 1
  2623  130  115 1
  2624 1994 1980 1
  2625 1995 1980 1
  2626 2281 2267 1
  2627 2282 2267 1
  2628 1039 1025 1
  2629 1040 1025 1
  2630 1387 1374 1
  2631 1388 1374 1
  2632 1547 1533 1
  2633 1548 1533 1
  2634 1835 1821 1
  2635 1836 1821 1
  2636  324  301 1
  2637  256  233 1
  2638 2249 2226 1
  2639  422  399 1
  2640 1707 1684 1
  2641  484  464 1
  2642 1253 1230 1
  2643 2029 2006 1
  2644  812  789 1
  2645 1740 1718 1
  2646  545  526 1
  2647  711  689 1
  2648  974  951 1
  2649 2215 2192 1
  2650 1639 1620 1
  2651 1336 1327 1
  2652 1356 1347 1
  2653 2315 2293 1
  2654  388  369 1
  2655  614  591 1
  2656 1389 1367 1
  2657 2475 2453 1
  2658 2476 2455 1
  2659 2181 2158 1
  2660 1673 1650 1
  2661   63   43 1
  2662  778  755 1
  2663 2349 2326 1
  2664   32    1 1
  2665 1803 1781 1
  2666  358  335 1
  2667 1481 1462 1
  2668 1515 1492 1
  2669 2147 2125 1
  2670  744  722 1
@<TRIPOS>SUBSTRUCTURE
     1   G9        3 RESIDUE           4 A       G     1 ROOT
     2   C10      38 RESIDUE           4 A       C     2
     3   G11      69 RESIDUE           4 A       G     2
     4   A12     103 RESIDUE           4 A       A     2
     5   C13     136 RESIDUE           4 A       C     2
     6   U14     167 RESIDUE           4 A       U     2
     7   C15     197 RESIDUE           4 A       C     2
     8   G16     228 RESIDUE           4 A       G     2
     9   G17     262 RESIDUE           4 A       G     2
    10   G18     296 RESIDUE           4 A       G     2
    11   G19     330 RESIDUE           4 A       G     2
    12   U20     364 RESIDUE           4 A       U     2
    13   G21     394 RESIDUE           4 A       G     2
    14   C22     428 RESIDUE           4 A       C     2
    15   C23     459 RESIDUE           4 A       C     2
    16   C24     490 RESIDUE           4 A       C     2
    17   U25     521 RESIDUE           4 A       U     2
    18   U26     546 RESIDUE           4 A       U     2
    19   C30     555 RESIDUE           4 A       C     2
    20   G31     586 RESIDUE           4 A       G     2
    21   U32     620 RESIDUE           4 A       U     2
    22   G33     650 RESIDUE           4 A       G     2
    23   A34     684 RESIDUE           4 A       A     2
    24   A35     717 RESIDUE           4 A       A     2
    25   G36     750 RESIDUE           4 A       G     2
    26   G37     784 RESIDUE           4 A       G     2
    27   C38     818 RESIDUE           4 A       C     2
    28   U39     849 RESIDUE           4 A       U     2
    29   G40     879 RESIDUE           4 A       G     2
    30   A41     913 RESIDUE           4 A       A     2
    31   G42     946 RESIDUE           4 A       G     2
    32   A43     980 RESIDUE           4 A       A     2
    33   A44    1013 RESIDUE           4 A       A     2
    34   A45    1046 RESIDUE           4 A       A     2
    35   U46    1079 RESIDUE           4 A       U     2
    36   A47    1099 RESIDUE           4 A       A     2
    37   C48    1132 RESIDUE           4 A       C     2
    38   C49    1163 RESIDUE           4 A       C     2
    39   C50    1194 RESIDUE           4 A       C     2
    40   G51    1225 RESIDUE           4 A       G     2
    41   U52    1259 RESIDUE           4 A       U     2
    42   A53    1289 RESIDUE           4 A       A     2
    43   U54    1322 RESIDUE           4 A       U     2
    44   C55    1342 RESIDUE           4 A       C     2
    45   A56    1362 RESIDUE           4 A       A     2
    46   C57    1395 RESIDUE           4 A       C     2
    47   C58    1426 RESIDUE           4 A       C     2
    48   U59    1457 RESIDUE           4 A       U     2
    49   G60    1487 RESIDUE           4 A       G     2
    50   A61    1521 RESIDUE           4 A       A     2
    51   U62    1554 RESIDUE           4 A       U     2
    52   C63    1584 RESIDUE           4 A       C     2
    53   U64    1615 RESIDUE           4 A       U     2
    54   G65    1645 RESIDUE           4 A       G     2
    55   G66    1679 RESIDUE           4 A       G     2
    56   A67    1713 RESIDUE           4 A       A     2
    57   U68    1746 RESIDUE           4 A       U     2
    58   A69    1776 RESIDUE           4 A       A     2
    59   A70    1809 RESIDUE           4 A       A     2
    60   U71    1842 RESIDUE           4 A       U     2
    61   G72    1872 RESIDUE           4 A       G     2
    62   C73    1906 RESIDUE           4 A       C     2
    63   C74    1937 RESIDUE           4 A       C     2
    64   A75    1968 RESIDUE           4 A       A     2
    65   G76    2001 RESIDUE           4 A       G     2
    66   C77    2035 RESIDUE           4 A       C     2
    67   G78    2066 RESIDUE           4 A       G     2
    68   U79    2100 RESIDUE           4 A       U     2
    69   A80    2120 RESIDUE           4 A       A     2
    70   G81    2153 RESIDUE           4 A       G     2
    71   G82    2187 RESIDUE           4 A       G     2
    72   G83    2221 RESIDUE           4 A       G     2
    73   A84    2255 RESIDUE           4 A       A     2
    74   A85    2288 RESIDUE           4 A       A     2
    75   G86    2321 RESIDUE           4 A       G     2
    76   U87    2355 RESIDUE           4 A       U     2
    77   C88    2385 RESIDUE           4 A       C     2
    78   G89    2416 RESIDUE           4 A       G     2
    79   C90    2450 RESIDUE           4 A       C     1
