@<TRIPOS>MOLECULE
2XO1.pdb
2051 2211 65 0 0
NUCLEIC_ACID
AMBER ff14SB


@<TRIPOS>ATOM
      1 O5'        -6.3550  -13.7520  -20.1670 O.3       1   A16      -0.6223
      2 C5'        -6.5580  -15.0600  -20.6890 C.3       1   A16       0.0558
      3 C4'        -5.9350  -16.1240  -19.8030 C.3       1   A16       0.1065
      4 O4'        -4.5100  -15.9010  -19.6670 O.3       1   A16      -0.3548
      5 C3'        -6.4110  -16.1570  -18.3590 C.3       1   A16       0.2022
      6 O3'        -7.7050  -16.7610  -18.2590 O.3       1   A16      -0.5246
      7 C2'        -5.3080  -16.9970  -17.7160 C.3       1   A16       0.0670
      8 O2'        -5.5190  -18.3920  -17.8520 O.3       1   A16      -0.6139
      9 C1'        -4.0610  -16.5740  -18.5000 C.3       1   A16       0.0394
     10 N9         -3.1420  -15.7140  -17.7440 N.ar      1   A16      -0.0251
     11 C8         -2.9370  -14.3710  -17.9170 C.ar      1   A16       0.2006
     12 N7         -2.0520  -13.8520  -17.0990 N.ar      1   A16      -0.6073
     13 C5         -1.6400  -14.9270  -16.3300 C.ar      1   A16       0.0515
     14 C6         -0.7060  -15.0420  -15.2730 C.ar      1   A16       0.7009
     15 N6          0.0000  -14.0080  -14.8030 N.pl3     1   A16      -0.9019
     16 N1         -0.5270  -16.2650  -14.7130 N.ar      1   A16      -0.7615
     17 C2         -1.2350  -17.3040  -15.1860 C.ar      1   A16       0.5875
     18 N3         -2.1390  -17.3140  -16.1720 N.ar      1   A16      -0.6997
     19 C4         -2.3000  -16.0860  -16.7120 C.ar      1   A16       0.3053
     20 H5'        -7.6291  -15.2471  -20.7648 H         1   A16       0.0679
     21 H5''       -6.1147  -15.1197  -21.6830 H         1   A16       0.0679
     22 H4'        -6.0999  -17.1026  -20.2537 H         1   A16       0.1174
     23 H3'        -6.4233  -15.1523  -17.9364 H         1   A16       0.0615
     24 H2'        -5.1988  -16.7335  -16.6640 H         1   A16       0.0972
     25 H1'        -3.5229  -17.4718  -18.8042 H         1   A16       0.2007
     26 H8         -3.4588  -13.7892  -18.6625 H         1   A16       0.1553
     27 H2         -1.0504  -18.2548  -14.7082 H         1   A16       0.0473
     28 HO2'       -5.8043  -18.7564  -17.0109 H         1   A16       0.4186
     29 H61        -0.1201  -13.0897  -15.2059 H         1   A16       0.4115
     30 H62         0.6533  -14.1454  -14.0451 H         1   A16       0.4115
     31 HO5'       -6.8574  -13.0152  -20.5225 H         1   A16       0.4295
     32 P          -8.7460  -16.3310  -17.1100 P.3       2   A17       1.1662
     33 OP1       -10.0690  -16.8880  -17.4740 O.co2     2   A17      -0.7760
     34 OP2        -8.6190  -14.8760  -16.8660 O.co2     2   A17      -0.7760
     35 O5'        -8.1980  -17.0990  -15.8150 O.3       2   A17      -0.4989
     36 C5'        -8.2870  -18.5240  -15.7200 C.3       2   A17       0.0558
     37 C4'        -7.3990  -19.0690  -14.6130 C.3       2   A17       0.1065
     38 O4'        -6.0060  -18.7370  -14.8600 O.3       2   A17      -0.3548
     39 C3'        -7.6710  -18.5110  -13.2230 C.3       2   A17       0.2022
     40 O3'        -8.7610  -19.1920  -12.6210 O.3       2   A17      -0.5246
     41 C2'        -6.3460  -18.7870  -12.5190 C.3       2   A17       0.0670
     42 O2'        -6.2110  -20.1220  -12.0610 O.3       2   A17      -0.6139
     43 C1'        -5.3430  -18.4870  -13.6310 C.3       2   A17       0.0394
     44 N9         -4.8480  -17.1050  -13.6080 N.ar      2   A17      -0.0251
     45 C8         -5.3560  -16.0270  -14.2850 C.ar      2   A17       0.2006
     46 N7         -4.7110  -14.9050  -14.0760 N.ar      2   A17      -0.6073
     47 C5         -3.7070  -15.2660  -13.1960 C.ar      2   A17       0.0515
     48 C6         -2.6740  -14.5270  -12.5810 C.ar      2   A17       0.7009
     49 N6         -2.4940  -13.2190  -12.7830 N.pl3     2   A17      -0.9019
     50 N1         -1.8330  -15.1860  -11.7520 N.ar      2   A17      -0.7615
     51 C2         -2.0150  -16.5010  -11.5510 C.ar      2   A17       0.5875
     52 N3         -2.9490  -17.3000  -12.0720 N.ar      2   A17      -0.6997
     53 C4         -3.7730  -16.6180  -12.8920 C.ar      2   A17       0.3053
     54 H5'        -9.3207  -18.8004  -15.5121 H         2   A17       0.0679
     55 H5''       -7.9840  -18.9645  -16.6699 H         2   A17       0.0679
     56 H4'        -7.5015  -20.1537  -14.5824 H         2   A17       0.1174
     57 H3'        -7.8656  -17.4395  -13.2700 H         2   A17       0.0615
     58 H2'        -6.2085  -18.0907  -11.6917 H         2   A17       0.0972
     59 H1'        -4.4972  -19.1684  -13.5392 H         2   A17       0.2007
     60 H8         -6.2152  -16.0961  -14.9357 H         2   A17       0.1553
     61 H2         -1.3138  -16.9745  -10.8798 H         2   A17       0.0473
     62 H61        -1.5515  -12.9388  -12.5522 H         2   A17       0.4115
     63 H62        -3.2084  -12.5911  -13.1228 H         2   A17       0.4115
     64 HO2'       -6.8499  -20.2878  -11.3639 H         2   A17       0.4186
     65 P          -9.8600  -18.3970  -11.7640 P.3       3   C18       1.1662
     66 OP1       -11.1130  -19.1860  -11.8260 O.co2     3   C18      -0.7760
     67 OP2        -9.8530  -16.9670  -12.1740 O.co2     3   C18      -0.7760
     68 O5'        -9.2690  -18.4960  -10.2810 O.3       3   C18      -0.4989
     69 C5'        -8.5810  -17.3880   -9.7400 C.3       3   C18       0.0558
     70 C4'        -7.4220  -17.8370   -8.8780 C.3       3   C18       0.1065
     71 O4'        -6.1810  -17.7100   -9.6170 O.3       3   C18      -0.3548
     72 C3'        -7.2430  -16.9370   -7.6710 C.3       3   C18       0.2022
     73 O3'        -7.9920  -17.4290   -6.5780 O.3       3   C18      -0.5246
     74 C2'        -5.7360  -16.9630   -7.4390 C.3       3   C18       0.0670
     75 O2'        -5.3030  -18.1180   -6.7480 O.3       3   C18      -0.6139
     76 C1'        -5.2380  -16.9490   -8.8810 C.3       3   C18       0.0066
     77 N1         -5.1020  -15.5550   -9.4640 N.am      3   C18      -0.0484
     78 C2         -4.0390  -14.7290   -9.0560 C.2       3   C18       0.7538
     79 O2         -3.2180  -15.1470   -8.2290 O.2       3   C18      -0.6252
     80 N3         -3.9300  -13.4810   -9.5890 N.2       3   C18      -0.7584
     81 C4         -4.8210  -13.0420  -10.4820 C.2       3   C18       0.8185
     82 N4         -4.6640  -11.8090  -10.9700 N.pl3     3   C18      -0.9530
     83 C5         -5.9110  -13.8560  -10.9160 C.2       3   C18      -0.5215
     84 C6         -6.0050  -15.0850  -10.3880 C.2       3   C18       0.0053
     85 H5'        -8.2011  -16.7720  -10.5551 H         3   C18       0.0679
     86 H5''       -9.2701  -16.7981   -9.1357 H         3   C18       0.0679
     87 H4'        -7.5670  -18.8694   -8.5599 H         3   C18       0.1174
     88 H3'        -7.5632  -15.9237   -7.9135 H         3   C18       0.0615
     89 H2'        -5.4149  -16.0624   -6.9156 H         3   C18       0.0972
     90 H1'        -4.2695  -17.4471   -8.9256 H         3   C18       0.2029
     91 H5         -6.6290  -13.4971  -11.6386 H         3   C18       0.1928
     92 H6         -6.8164  -15.7265  -10.6987 H         3   C18       0.1958
     93 H41        -3.8902  -11.2383  -10.6608 H         3   C18       0.4234
     94 H42        -5.3191  -11.4471  -11.6483 H         3   C18       0.4234
     95 HO2'       -5.6329  -18.0948   -5.8468 H         3   C18       0.4186
     96 P          -8.7870  -16.3690   -5.6870 P.3       4   A19       1.1662
     97 OP1        -9.5230  -17.1250   -4.6480 O.co2     4   A19      -0.7760
     98 OP2        -9.5090  -15.4430   -6.5910 O.co2     4   A19      -0.7760
     99 O5'        -7.6040  -15.5400   -4.9990 O.3       4   A19      -0.4989
    100 C5'        -6.8000  -16.1390   -3.9860 C.3       4   A19       0.0558
    101 C4'        -5.7480  -15.1520   -3.5250 C.3       4   A19       0.1065
    102 O4'        -4.9070  -14.7620   -4.6380 O.3       4   A19      -0.3548
    103 C3'        -6.2970  -13.8270   -3.0280 C.3       4   A19       0.2022
    104 O3'        -6.7690  -13.9560   -1.7020 O.3       4   A19      -0.5246
    105 C2'        -5.0670  -12.9320   -3.1350 C.3       4   A19       0.0670
    106 O2'        -4.1350  -13.1080   -2.0780 O.3       4   A19      -0.6139
    107 C1'        -4.4860  -13.4180   -4.4590 C.3       4   A19       0.0394
    108 N9         -4.9100  -12.6210   -5.6130 N.ar      4   A19      -0.0251
    109 C8         -5.8850  -12.9270   -6.5280 C.ar      4   A19       0.2006
    110 N7         -6.0380  -12.0160   -7.4620 N.ar      4   A19      -0.6073
    111 C5         -5.0990  -11.0490   -7.1380 C.ar      4   A19       0.0515
    112 C6         -4.7470   -9.8180   -7.7330 C.ar      4   A19       0.7009
    113 N6         -5.3360   -9.3480   -8.8330 N.pl3     4   A19      -0.9019
    114 N1         -3.7690   -9.0840   -7.1530 N.ar      4   A19      -0.7615
    115 C2         -3.1710   -9.5600   -6.0500 C.ar      4   A19       0.5875
    116 N3         -3.4190  -10.7000   -5.4010 N.ar      4   A19      -0.6997
    117 C4         -4.3990  -11.4030   -5.9990 C.ar      4   A19       0.3053
    118 H5'        -7.4295  -16.4193   -3.1415 H         4   A19       0.0679
    119 H5''       -6.3131  -17.0280   -4.3870 H         4   A19       0.0679
    120 H4'        -5.1356  -15.6081   -2.7471 H         4   A19       0.1174
    121 H3'        -7.0901  -13.4695   -3.6847 H         4   A19       0.0615
    122 H2'        -5.3632  -11.8858   -3.2107 H         4   A19       0.0972
    123 H1'        -3.3981  -13.3952   -4.3958 H         4   A19       0.2007
    124 H8         -6.4721  -13.8324   -6.4846 H         4   A19       0.1553
    125 H2         -2.3891   -8.9418   -5.6341 H         4   A19       0.0473
    126 HO2'       -4.1505  -12.3375   -1.5055 H         4   A19       0.4186
    127 H61        -4.7163   -8.7043   -9.3039 H         4   A19       0.4115
    128 H62        -6.2625   -9.5980   -9.1480 H         4   A19       0.4115
    129 P          -7.9930  -13.0560   -1.2130 P.3       5   U20       1.1662
    130 OP1        -8.3820  -13.4860    0.1480 O.co2     5   U20      -0.7760
    131 OP2        -8.9880  -13.0100   -2.3110 O.co2     5   U20      -0.7760
    132 O5'        -7.3370  -11.6060   -1.0800 O.3       5   U20      -0.4989
    133 C5'        -6.3600  -11.3320   -0.0750 C.3       5   U20       0.0558
    134 C4'        -5.7590   -9.9610   -0.3110 C.3       5   U20       0.1065
    135 O4'        -5.1510   -9.9120   -1.6250 O.3       5   U20      -0.3548
    136 C3'        -6.7840   -8.8470   -0.3780 C.3       5   U20       0.2022
    137 O3'        -7.1880   -8.4500    0.9080 O.3       5   U20      -0.5246
    138 C2'        -6.0220   -7.7620   -1.1240 C.3       5   U20       0.0670
    139 O2'        -5.1050   -7.0500   -0.3190 O.3       5   U20      -0.6139
    140 C1'        -5.2730   -8.6010   -2.1470 C.3       5   U20       0.0674
    141 N1         -5.9470   -8.6110   -3.4850 N.am      5   U20       0.0418
    142 C2         -5.7280   -7.5390   -4.3350 C.2       5   U20       0.4687
    143 O2         -5.0230   -6.5890   -4.0440 O.2       5   U20      -0.5477
    144 N3         -6.3760   -7.6150   -5.5480 N.am      5   U20      -0.3549
    145 C4         -7.2100   -8.6410   -5.9680 C.2       5   U20       0.5952
    146 O4         -7.7180   -8.5860   -7.0770 O.2       5   U20      -0.5761
    147 C5         -7.3850   -9.7220   -5.0300 C.2       5   U20      -0.3635
    148 C6         -6.7670   -9.6630   -3.8470 C.2       5   U20      -0.1126
    149 H5'        -5.5734  -12.0853   -0.1190 H         5   U20       0.0679
    150 H5''       -6.8324  -11.3572    0.9070 H         5   U20       0.0679
    151 H4'        -5.0153   -9.7407    0.4548 H         5   U20       0.1174
    152 H3'        -7.6480   -9.1667   -0.9606 H         5   U20       0.0615
    153 H2'        -6.7118   -7.0780   -1.6183 H         5   U20       0.0972
    154 H1'        -4.2731   -8.1843   -2.2683 H         5   U20       0.1824
    155 H3         -6.2302   -6.8514   -6.1928 H         5   U20       0.3154
    156 H5         -8.0075  -10.5683   -5.2804 H         5   U20       0.1811
    157 H6         -6.9142  -10.4703   -3.1449 H         5   U20       0.2188
    158 HO2'       -5.5850   -6.5230    0.3240 H         5   U20       0.4186
    159 P          -8.7170   -8.0300    1.1180 P.3       6   A21       1.1662
    160 OP1        -8.9220   -7.7200    2.5430 O.co2     6   A21      -0.7760
    161 OP2        -9.5790   -9.0250    0.4250 O.co2     6   A21      -0.7760
    162 O5'        -8.8240   -6.6870    0.2540 O.3       6   A21      -0.4989
    163 C5'        -8.3760   -5.4470    0.7780 C.3       6   A21       0.0558
    164 C4'        -8.5220   -4.3690   -0.2780 C.3       6   A21       0.1065
    165 O4'        -7.8840   -4.7610   -1.5090 O.3       6   A21      -0.3548
    166 C3'        -9.9530   -4.0840   -0.7120 C.3       6   A21       0.2022
    167 O3'       -10.6250   -3.3210    0.2830 O.3       6   A21      -0.5246
    168 C2'        -9.6930   -3.3020   -1.9980 C.3       6   A21       0.0670
    169 O2'        -9.4220   -1.9370   -1.7680 O.3       6   A21      -0.6139
    170 C1'        -8.4400   -3.9840   -2.5550 C.3       6   A21       0.0394
    171 N9         -8.7850   -4.8180   -3.6990 N.ar      6   A21      -0.0251
    172 C8         -9.2340   -6.1070   -3.6880 C.ar      6   A21       0.2006
    173 N7         -9.4910   -6.5900   -4.8830 N.ar      6   A21      -0.6073
    174 C5         -9.1960   -5.5430   -5.7360 C.ar      6   A21       0.0515
    175 C6         -9.2600   -5.4120   -7.1450 C.ar      6   A21       0.7009
    176 N6         -9.6600   -6.3820   -7.9650 N.pl3     6   A21      -0.9019
    177 N1         -8.8930   -4.2250   -7.6800 N.ar      6   A21      -0.7615
    178 C2         -8.4950   -3.2350   -6.8610 C.ar      6   A21       0.5875
    179 N3         -8.3920   -3.2340   -5.5280 N.ar      6   A21      -0.6997
    180 C4         -8.7630   -4.4360   -5.0210 C.ar      6   A21       0.3053
    181 H5'        -8.9743   -5.1841    1.6504 H         6   A21       0.0679
    182 H5''       -7.3287   -5.5322    1.0679 H         6   A21       0.0679
    183 H4'        -8.0667   -3.4474    0.0846 H         6   A21       0.1174
    184 H3'       -10.4886   -5.0101   -0.9207 H         6   A21       0.0615
    185 H2'       -10.5284   -3.4145   -2.6891 H         6   A21       0.0972
    186 H1'        -7.7213   -3.2249   -2.8637 H         6   A21       0.2007
    187 H8         -9.3660   -6.6776   -2.7806 H         6   A21       0.1553
    188 H2         -8.2201   -2.3114   -7.3486 H         6   A21       0.0473
    189 HO2'       -9.0575   -1.5440   -2.5644 H         6   A21       0.4186
    190 H61        -9.4157   -6.1585   -8.9192 H         6   A21       0.4115
    191 H62       -10.1396   -7.2219   -7.6741 H         6   A21       0.4115
    192 P         -11.8260   -3.9160    1.1790 P.3       7   U22       1.1662
    193 OP1       -12.0160   -3.0130    2.3240 O.co2     7   U22      -0.7760
    194 OP2       -11.6280   -5.3590    1.4030 O.co2     7   U22      -0.7760
    195 O5'       -13.0930   -3.7070    0.2090 O.3       7   U22      -0.4989
    196 C5'       -14.2200   -4.6150    0.2310 C.3       7   U22       0.0558
    197 C4'       -14.7330   -4.8530   -1.1810 C.3       7   U22       0.1065
    198 O4'       -15.0350   -3.5510   -1.7410 O.3       7   U22      -0.3548
    199 C3'       -13.7220   -5.4830   -2.1400 C.3       7   U22       0.2022
    200 O3'       -14.3560   -6.2490   -3.1480 O.3       7   U22      -0.5246
    201 C2'       -13.0660   -4.2500   -2.7540 C.3       7   U22       0.0670
    202 O2'       -12.3920   -4.5100   -3.9700 O.3       7   U22      -0.6139
    203 C1'       -14.2750   -3.3320   -2.9140 C.3       7   U22       0.0674
    204 N1        -13.8950   -1.8930   -3.0100 N.am      7   U22       0.0418
    205 C2        -14.1140   -1.1830   -4.1860 C.2       7   U22       0.4687
    206 O2        -14.6250   -1.6460   -5.1930 O.2       7   U22      -0.5477
    207 N3        -13.7000    0.1260   -4.1340 N.am      7   U22      -0.3549
    208 C4        -13.1160    0.7860   -3.0660 C.2       7   U22       0.5952
    209 O4        -12.7990    1.9610   -3.1780 O.2       7   U22      -0.5761
    210 C5        -12.9170   -0.0120   -1.8860 C.2       7   U22      -0.3635
    211 C6        -13.3070   -1.2900   -1.9110 C.2       7   U22      -0.1126
    212 H5'       -13.9080   -5.5649    0.6651 H         7   U22       0.0679
    213 H5''      -15.0176   -4.1857    0.8373 H         7   U22       0.0679
    214 H4'       -15.6380   -5.4596   -1.1477 H         7   U22       0.1174
    215 H3'       -12.9917   -6.0827   -1.5968 H         7   U22       0.0615
    216 H2'       -12.3697   -3.8135   -2.0380 H         7   U22       0.0972
    217 H1'       -14.8515   -3.6245   -3.7916 H         7   U22       0.1824
    218 H3        -13.8378    0.6708   -4.9732 H         7   U22       0.3154
    219 H5        -12.4637    0.4111   -1.0018 H         7   U22       0.1811
    220 H6        -13.1549   -1.8864   -1.0235 H         7   U22       0.2188
    221 HO2'      -11.6451   -5.0900   -3.8047 H         7   U22       0.4186
    222 P         -14.6170   -7.8210   -3.0160 P.3       8   A23       1.1662
    223 OP1       -13.9190   -8.3290   -1.8070 O.co2     8   A23      -0.7760
    224 OP2       -14.3300   -8.4340   -4.3290 O.co2     8   A23      -0.7760
    225 O5'       -16.1850   -7.9000   -2.7800 O.3       8   A23      -0.4989
    226 C5'       -17.1120   -7.2610   -3.6630 C.3       8   A23       0.0558
    227 C4'       -18.3530   -6.8430   -2.8950 C.3       8   A23       0.1065
    228 O4'       -17.9670   -6.1550   -1.6920 O.3       8   A23      -0.3548
    229 C3'       -19.2420   -5.8060   -3.5720 C.3       8   A23       0.2022
    230 O3'       -20.0960   -6.4250   -4.4980 O.3       8   A23      -0.5246
    231 C2'       -20.0390   -5.2210   -2.4180 C.3       8   A23       0.0670
    232 O2'       -21.1940   -5.9870   -2.1260 O.3       8   A23      -0.6139
    233 C1'       -19.0210   -5.3010   -1.2770 C.3       8   A23       0.0394
    234 N9        -18.4360   -4.0160   -0.8850 N.ar      8   A23      -0.0251
    235 C8        -18.1990   -3.6150    0.3970 C.ar      8   A23       0.2006
    236 N7        -17.6720   -2.4200    0.4910 N.ar      8   A23      -0.6073
    237 C5        -17.5540   -1.9980   -0.8220 C.ar      8   A23       0.0515
    238 C6        -17.0560   -0.8110   -1.4000 C.ar      8   A23       0.7009
    239 N6        -16.5680    0.2110   -0.6990 N.pl3     8   A23      -0.9019
    240 N1        -17.0820   -0.7050   -2.7470 N.ar      8   A23      -0.7615
    241 C2        -17.5580   -1.7240   -3.4730 C.ar      8   A23       0.5875
    242 N3        -18.0480   -2.8870   -3.0340 N.ar      8   A23      -0.6997
    243 C4        -18.0200   -2.9680   -1.6880 C.ar      8   A23       0.3053
    244 H5'       -16.6444   -6.3794   -4.1014 H         8   A23       0.0679
    245 H5''      -17.3932   -7.9539   -4.4561 H         8   A23       0.0679
    246 H4'       -18.9428   -7.7239   -2.6417 H         8   A23       0.1174
    247 H3'       -18.6398   -5.0367   -4.0554 H         8   A23       0.0615
    248 H2'       -20.3068   -4.1843   -2.6223 H         8   A23       0.0972
    249 H1'       -19.5063   -5.7433   -0.4069 H         8   A23       0.2007
    250 H8        -18.4256   -4.2278    1.2570 H         8   A23       0.1553
    251 H2        -17.5443   -1.5897   -4.5445 H         8   A23       0.0473
    252 H61       -16.3998    1.1476   -1.0375 H         8   A23       0.4115
    253 H62       -16.0611    0.3516    0.1632 H         8   A23       0.4115
    254 HO2'      -21.8153   -5.9206   -2.8549 H         8   A23       0.4186
    255 P         -19.9270   -6.2020   -6.0680 P.3       9   A24       1.1662
    256 OP1       -20.9060   -7.1140   -6.6860 O.co2     9   A24      -0.7760
    257 OP2       -18.5130   -6.3260   -6.4910 O.co2     9   A24      -0.7760
    258 O5'       -20.4630   -4.7060   -6.2840 O.3       9   A24      -0.4989
    259 C5'       -19.6710   -3.5720   -5.9980 C.3       9   A24       0.0558
    260 C4'       -19.4870   -2.7050   -7.2230 C.3       9   A24       0.1065
    261 O4'       -18.5490   -3.3280   -8.1210 O.3       9   A24      -0.3548
    262 C3'       -20.7170   -2.5010   -8.0900 C.3       9   A24       0.2022
    263 O3'       -21.5320   -1.4850   -7.5070 O.3       9   A24      -0.5246
    264 C2'       -20.0530   -2.0150   -9.3790 C.3       9   A24       0.0670
    265 O2'       -19.6180   -0.6750   -9.2790 O.3       9   A24      -0.6139
    266 C1'       -18.8230   -2.9050   -9.4440 C.3       9   A24       0.0394
    267 N9        -18.9370   -4.0810  -10.2930 N.ar      9   A24      -0.0251
    268 C8        -18.9490   -5.3980   -9.8980 C.ar      9   A24       0.2006
    269 N7        -19.0280   -6.2430  -10.8900 N.ar      9   A24      -0.6073
    270 C5        -19.0690   -5.4240  -12.0060 C.ar      9   A24       0.0515
    271 C6        -19.1690   -5.7130  -13.3820 C.ar      9   A24       0.7009
    272 N6        -19.2110   -6.9630  -13.8470 N.pl3     9   A24      -0.9019
    273 N1        -19.1990   -4.6630  -14.2350 N.ar      9   A24      -0.7615
    274 C2        -19.1240   -3.4100  -13.7500 C.ar      9   A24       0.5875
    275 N3        -19.0380   -3.0070  -12.4750 N.ar      9   A24      -0.6997
    276 C4        -19.0120   -4.0860  -11.6600 C.ar      9   A24       0.3053
    277 H5'       -20.1588   -2.9861   -5.2189 H         9   A24       0.0679
    278 H5''      -18.6943   -3.8987   -5.6411 H         9   A24       0.0679
    279 H4'       -19.0990   -1.7331   -6.9183 H         9   A24       0.1174
    280 H3'       -21.2682   -3.4293   -8.2404 H         9   A24       0.0615
    281 H2'       -20.7004   -2.1626  -10.2434 H         9   A24       0.0972
    282 H1'       -17.9826   -2.3064   -9.7954 H         9   A24       0.2007
    283 H8        -18.8979   -5.7047   -8.8637 H         9   A24       0.1553
    284 H2        -19.1346   -2.6222  -14.4887 H         9   A24       0.0473
    285 H61       -19.1796   -7.7420  -13.2049 H         9   A24       0.4115
    286 H62       -19.2742   -7.1302  -14.8411 H         9   A24       0.4115
    287 HO2'      -19.1987   -0.4127  -10.1018 H         9   A24       0.4186
    288 P         -23.0960   -1.6850   -7.1710 P.3      10   U25       1.1662
    289 OP1       -23.5390   -2.9970   -7.7030 O.co2    10   U25      -0.7760
    290 OP2       -23.7950   -0.4510   -7.6250 O.co2    10   U25      -0.7760
    291 O5'       -23.1390   -1.5630   -5.5830 O.3      10   U25      -0.4989
    292 C5'       -23.0820   -2.6760   -4.6930 C.3      10   U25       0.0558
    293 C4'       -22.5540   -2.2360   -3.3320 C.3      10   U25       0.1065
    294 O4'       -21.1460   -1.8850   -3.4540 O.3      10   U25      -0.3548
    295 C3'       -23.1750   -0.9970   -2.6890 C.3      10   U25       0.2022
    296 O3'       -24.4060   -1.2640   -1.9960 O.3      10   U25      -0.5246
    297 C2'       -22.0720   -0.6180   -1.7120 C.3      10   U25       0.0670
    298 O2'       -21.9930   -1.5340   -0.6400 O.3      10   U25      -0.6139
    299 C1'       -20.8480   -0.7950   -2.6010 C.3      10   U25       0.0674
    300 N1        -20.4660    0.4470   -3.3810 N.am     10   U25       0.0418
    301 C2        -19.9150    1.5140   -2.6880 C.2      10   U25       0.4687
    302 O2        -19.7210    1.5260   -1.4830 O.2      10   U25      -0.5477
    303 N3        -19.5850    2.5980   -3.4460 N.am     10   U25      -0.3549
    304 C4        -19.7380    2.7380   -4.8100 C.2      10   U25       0.5952
    305 O4        -19.3910    3.7900   -5.3290 O.2      10   U25      -0.5761
    306 C5        -20.3170    1.5940   -5.4780 C.2      10   U25      -0.3635
    307 C6        -20.6450    0.5060   -4.7540 C.2      10   U25      -0.1126
    308 H5'       -24.0821   -3.0927   -4.5734 H        10   U25       0.0679
    309 H5''      -22.4210   -3.4368   -5.1081 H        10   U25       0.0679
    310 H4'       -22.6452   -3.0709   -2.6372 H        10   U25       0.1174
    311 H3'       -23.3161   -0.2108   -3.4307 H        10   U25       0.0615
    312 H2'       -22.1747    0.4091   -1.3619 H        10   U25       0.0972
    313 H1'       -20.0047   -1.0753   -1.9699 H        10   U25       0.1824
    314 H3        -19.1847    3.3848   -2.9553 H        10   U25       0.3154
    315 H5        -20.4846    1.6113   -6.5448 H        10   U25       0.1811
    316 H6        -21.0624   -0.3509   -5.2619 H        10   U25       0.2188
    317 HO2'      -22.7607   -1.4306   -0.0729 H        10   U25       0.4186
    318 P         -25.4530   -0.0760   -1.6640 P.3      11   C26       1.1662
    319 OP1       -26.6830   -0.7870   -1.2320 O.co2    11   C26      -0.7760
    320 OP2       -25.5210    0.8430   -2.8260 O.co2    11   C26      -0.7760
    321 O5'       -24.8500    0.7800   -0.4420 O.3      11   C26      -0.4989
    322 C5'       -24.8100    0.2970    0.9000 C.3      11   C26       0.0558
    323 C4'       -24.2280    1.3360    1.8540 C.3      11   C26       0.1065
    324 O4'       -22.8430    1.6440    1.5360 O.3      11   C26      -0.3548
    325 C3'       -24.8910    2.7060    1.8320 C.3      11   C26       0.2022
    326 O3'       -26.0940    2.6820    2.5580 O.3      11   C26      -0.5246
    327 C2'       -23.8290    3.5290    2.5490 C.3      11   C26       0.0670
    328 O2'       -23.7570    3.2590    3.9380 O.3      11   C26      -0.6139
    329 C1'       -22.5850    3.0150    1.8330 C.3      11   C26       0.0066
    330 N1        -22.3360    3.7830    0.5670 N.am     11   C26      -0.0484
    331 C2        -21.8270    5.1030    0.6290 C.2      11   C26       0.7538
    332 O2        -21.5760    5.6390    1.7250 O.2      11   C26      -0.6252
    333 N3        -21.6220    5.7600   -0.5440 N.2      11   C26      -0.7584
    334 C4        -21.9090    5.1750   -1.7160 C.2      11   C26       0.8185
    335 N4        -21.6810    5.8780   -2.8240 N.pl3    11   C26      -0.9530
    336 C5        -22.4260    3.8490   -1.8050 C.2      11   C26      -0.5215
    337 C6        -22.6200    3.2030   -0.6470 C.2      11   C26       0.0053
    338 H5'       -24.1920   -0.6002    0.9346 H        11   C26       0.0679
    339 H5''      -25.8215    0.0462    1.2194 H        11   C26       0.0679
    340 H4'       -24.2739    0.9422    2.8693 H        11   C26       0.1174
    341 H3'       -25.0472    3.0575    0.8121 H        11   C26       0.0615
    342 H2'       -23.9719    4.5940    2.3659 H        11   C26       0.0972
    343 H1'       -21.7196    3.0949    2.4908 H        11   C26       0.2029
    344 H5        -22.6496    3.3892   -2.7563 H        11   C26       0.1928
    345 H6        -23.0112    2.1965   -0.6679 H        11   C26       0.1958
    346 H41       -21.3104    6.8154   -2.7600 H        11   C26       0.4234
    347 H42       -21.8787    5.4737   -3.7282 H        11   C26       0.4234
    348 HO2'      -24.5479    3.5897    4.3701 H        11   C26       0.4186
    349 P         -27.2970    3.6460    2.1410 P.3      12   G27       1.1662
    350 OP1       -28.3800    3.3720    3.1180 O.co2    12   G27      -0.7760
    351 OP2       -27.5460    3.5260    0.6790 O.co2    12   G27      -0.7760
    352 O5'       -26.6730    5.1000    2.3990 O.3      12   G27      -0.4989
    353 C5'       -26.5030    5.5230    3.7450 C.3      12   G27       0.0558
    354 C4'       -26.0170    6.9580    3.7510 C.3      12   G27       0.1065
    355 O4'       -24.7560    7.0590    3.0520 O.3      12   G27      -0.3548
    356 C3'       -26.9120    7.9020    2.9750 C.3      12   G27       0.2022
    357 O3'       -28.0310    8.2380    3.7690 O.3      12   G27      -0.5246
    358 C2'       -25.9690    9.0820    2.8260 C.3      12   G27       0.0670
    359 O2'       -25.8760    9.8670    4.0180 O.3      12   G27      -0.6139
    360 C1'       -24.6640    8.3590    2.4860 C.3      12   G27       0.0191
    361 N9        -24.4600    8.2300    1.0390 N.ar     12   G27       0.0492
    362 C8        -24.6790    7.1330    0.2370 C.ar     12   G27       0.1374
    363 N7        -24.4190    7.3510   -1.0320 N.ar     12   G27      -0.5709
    364 C5        -24.0170    8.6790   -1.0840 C.ar     12   G27       0.1744
    365 C6        -23.6130    9.4950   -2.1790 C.2      12   G27       0.4770
    366 O6        -23.5110    9.1970   -3.3800 O.2      12   G27      -0.5597
    367 N1        -23.3140   10.7940   -1.7730 N.am     12   G27      -0.4787
    368 C2        -23.3780   11.2510   -0.4790 C.2      12   G27       0.7657
    369 N2        -23.0370   12.5280   -0.2720 N.pl3    12   G27      -0.9672
    370 N3        -23.7460   10.5010    0.5570 N.2      12   G27      -0.6323
    371 C4        -24.0460    9.2340    0.1850 C.ar     12   G27       0.1222
    372 H5'       -27.4548    5.4570    4.2721 H        12   G27       0.0679
    373 H5''      -25.7680    4.8865    4.2377 H        12   G27       0.0679
    374 H4'       -25.9042    7.3094    4.7766 H        12   G27       0.1174
    375 H3'       -27.2046    7.4878    2.0101 H        12   G27       0.0615
    376 H2'       -26.2802    9.7070    1.9890 H        12   G27       0.0972
    377 H1'       -23.8231    8.8929    2.9286 H        12   G27       0.2006
    378 H8        -25.0308    6.1843    0.6147 H        12   G27       0.1640
    379 H1        -23.0280   11.4505   -2.4853 H        12   G27       0.3424
    380 H21       -22.7528   13.1072   -1.0491 H        12   G27       0.4364
    381 H22       -23.0637   12.9129    0.6614 H        12   G27       0.4364
    382 HO2'      -25.2705   10.5979    3.8739 H        12   G27       0.4186
    383 P         -29.4140    8.6380    3.0990 P.3      13   C28       1.1662
    384 OP1       -30.3490    8.9190    4.2290 O.co2    13   C28      -0.7760
    385 OP2       -29.7820    7.6940    2.0210 O.co2    13   C28      -0.7760
    386 O5'       -28.9840   10.0400    2.4690 O.3      13   C28      -0.4989
    387 C5'       -29.5060   10.5360    1.2860 C.3      13   C28       0.0558
    388 C4'       -28.7710   11.8450    1.1260 C.3      13   C28       0.1065
    389 O4'       -27.3690   11.6240    0.8260 O.3      13   C28      -0.3548
    390 C3'       -29.2510   12.7210   -0.0140 C.3      13   C28       0.2022
    391 O3'       -30.3710   13.4340    0.4070 O.3      13   C28      -0.5246
    392 C2'       -28.0160   13.5820   -0.2500 C.3      13   C28       0.0670
    393 O2'       -27.7840   14.5720    0.7400 O.3      13   C28      -0.6139
    394 C1'       -26.9250   12.5320   -0.1710 C.3      13   C28       0.0066
    395 N1        -26.7330   11.7960   -1.4660 N.am     13   C28      -0.0484
    396 C2        -26.1300   12.4650   -2.5470 C.2      13   C28       0.7538
    397 O2        -25.7610   13.6460   -2.3980 O.2      13   C28      -0.6252
    398 N3        -25.9550   11.7760   -3.7120 N.2      13   C28      -0.7584
    399 C4        -26.3560   10.5010   -3.8260 C.2      13   C28       0.8185
    400 N4        -26.1760    9.8670   -4.9970 N.pl3    13   C28      -0.9530
    401 C5        -26.9670    9.8100   -2.7320 C.2      13   C28      -0.5215
    402 C6        -27.1370   10.4940   -1.5920 C.2      13   C28       0.0053
    403 H5'       -29.2995    9.8644    0.4527 H        13   C28       0.0679
    404 H5''      -30.5780   10.7080    1.3828 H        13   C28       0.0679
    405 H4'       -28.8469   12.4068    2.0570 H        13   C28       0.1174
    406 H3'       -29.4806   12.1213   -0.8947 H        13   C28       0.0615
    407 H2'       -28.0452   14.0313   -1.2427 H        13   C28       0.0972
    408 H1'       -25.9867   12.9931    0.1373 H        13   C28       0.2029
    409 H5        -27.2783    8.7797   -2.8213 H        13   C28       0.1928
    410 H6        -27.6051   10.0051   -0.7504 H        13   C28       0.1958
    411 H41       -25.7453   10.3505   -5.7721 H        13   C28       0.4234
    412 H42       -26.4715    8.9069   -5.1021 H        13   C28       0.4234
    413 HO2'      -26.9298   14.9828    0.5878 H        13   C28       0.4186
    414 P         -31.4780   13.8350   -0.6560 P.3      14   G29       1.1662
    415 OP1       -32.7000   14.2950    0.0250 O.co2    14   G29      -0.7760
    416 OP2       -31.5650   12.7720   -1.6940 O.co2    14   G29      -0.7760
    417 O5'       -30.8000   15.0850   -1.3810 O.3      14   G29      -0.4989
    418 C5'       -30.4490   16.2990   -0.7040 C.3      14   G29       0.0558
    419 C4'       -29.8330   17.2160   -1.7420 C.3      14   G29       0.1065
    420 O4'       -28.6090   16.5880   -2.1940 O.3      14   G29      -0.3548
    421 C3'       -30.6290   17.4360   -3.0210 C.3      14   G29       0.2022
    422 O3'       -31.6100   18.4470   -2.8720 O.3      14   G29      -0.5246
    423 C2'       -29.5120   17.8620   -3.9680 C.3      14   G29       0.0670
    424 O2'       -28.9890   19.1590   -3.7210 O.3      14   G29      -0.6139
    425 C1'       -28.4450   16.8530   -3.5820 C.3      14   G29       0.0191
    426 N9        -28.4720   15.5830   -4.3160 N.ar     14   G29       0.0492
    427 C8        -28.9130   14.3480   -3.8940 C.ar     14   G29       0.1374
    428 N7        -28.7620   13.4140   -4.8040 N.ar     14   G29      -0.5709
    429 C5        -28.1770   14.0790   -5.8780 C.ar     14   G29       0.1744
    430 C6        -27.7900   13.5960   -7.1500 C.2      14   G29       0.4770
    431 O6        -27.8770   12.4260   -7.5840 O.2      14   G29      -0.5597
    432 N1        -27.2590   14.6080   -7.9510 N.am     14   G29      -0.4787
    433 C2        -27.0990   15.9280   -7.5580 C.2      14   G29       0.7657
    434 N2        -26.5640   16.7590   -8.4690 N.pl3    14   G29      -0.9672
    435 N3        -27.4670   16.3970   -6.3630 N.2      14   G29      -0.6323
    436 C4        -27.9870   15.4110   -5.5830 C.ar     14   G29       0.1222
    437 H5'       -31.3388   16.7608   -0.2761 H        14   G29       0.0679
    438 H5''      -29.7245   16.0892    0.0829 H        14   G29       0.0679
    439 H4'       -29.6019   18.1789   -1.2864 H        14   G29       0.1174
    440 H3'       -31.0841   16.5041   -3.3566 H        14   G29       0.0615
    441 H2'       -29.8095   17.7459   -5.0102 H        14   G29       0.0972
    442 H1'       -27.4682   17.3136   -3.7299 H        14   G29       0.2006
    443 H8        -29.3380   14.1673   -2.9177 H        14   G29       0.1640
    444 H1        -26.9698   14.3604   -8.8865 H        14   G29       0.3424
    445 H21       -26.2946   16.4074   -9.3767 H        14   G29       0.4364
    446 H22       -26.4314   17.7351   -8.2459 H        14   G29       0.4364
    447 HO2'      -29.6448   19.8192   -3.9569 H        14   G29       0.4186
    448 P         -33.0690   18.2800   -3.4360 P.3      15   U30       1.1662
    449 OP1       -33.9340   19.2990   -2.8070 O.co2    15   U30      -0.7760
    450 OP2       -33.4650   16.8490   -3.3610 O.co2    15   U30      -0.7760
    451 O5'       -32.8630   18.6500   -4.9850 O.3      15   U30      -0.4989
    452 C5'       -32.6600   20.0100   -5.3700 C.3      15   U30       0.0558
    453 C4'       -32.2360   19.9910   -6.8230 C.3      15   U30       0.1065
    454 O4'       -31.0070   19.2590   -6.9940 O.3      15   U30      -0.3548
    455 C3'       -33.1890   19.2600   -7.7440 C.3      15   U30       0.2022
    456 O3'       -34.4040   19.9560   -8.0080 O.3      15   U30      -0.5246
    457 C2'       -32.2890   19.0870   -8.9640 C.3      15   U30       0.0670
    458 O2'       -32.1120   20.3030   -9.6890 O.3      15   U30      -0.6139
    459 C1'       -30.9920   18.6670   -8.2770 C.3      15   U30       0.0674
    460 N1        -30.9480   17.1800   -8.1020 N.am     15   U30       0.0418
    461 C2        -30.5840   16.4430   -9.1990 C.2      15   U30       0.4687
    462 O2        -30.2840   16.9750  -10.2530 O.2      15   U30      -0.5477
    463 N3        -30.5880   15.0850   -9.0050 N.am     15   U30      -0.3549
    464 C4        -30.9530   14.4200   -7.8480 C.2      15   U30       0.5952
    465 O4        -30.9130   13.2010   -7.8150 O.2      15   U30      -0.5761
    466 C5        -31.3250   15.2570   -6.7360 C.2      15   U30      -0.3635
    467 C6        -31.3220   16.5830   -6.9110 C.2      15   U30      -0.1126
    468 H5'       -31.8801   20.4616   -4.7569 H        15   U30       0.0679
    469 H5''      -33.5890   20.5697   -5.2612 H        15   U30       0.0679
    470 H4'       -32.1021   21.0136   -7.1759 H        15   U30       0.1174
    471 H3'       -33.4181   18.2811   -7.3229 H        15   U30       0.0615
    472 H2'       -32.6606   18.2951   -9.6143 H        15   U30       0.0972
    473 H1'       -30.1287   19.0108   -8.8468 H        15   U30       0.1824
    474 H3        -30.2953   14.5136   -9.7847 H        15   U30       0.3154
    475 H5        -31.5994   14.8247   -5.7851 H        15   U30       0.1811
    476 H6        -31.6241   17.2142   -6.0883 H        15   U30       0.2188
    477 HO2'      -32.2178   20.1345  -10.6281 H        15   U30       0.4186
    478 P         -35.7730   19.2050   -8.3120 P.3      16   G31       1.1662
    479 OP1       -36.8770   20.2000   -8.3210 O.co2    16   G31      -0.7760
    480 OP2       -35.8630   18.0230   -7.4270 O.co2    16   G31      -0.7760
    481 O5'       -35.5850   18.6440   -9.7910 O.3      16   G31      -0.4989
    482 C5'       -35.4540   19.5660  -10.8740 C.3      16   G31       0.0558
    483 C4'       -34.8560   18.8680  -12.0760 C.3      16   G31       0.1065
    484 O4'       -33.6090   18.2450  -11.7060 O.3      16   G31      -0.3548
    485 C3'       -35.6600   17.7050  -12.6340 C.3      16   G31       0.2022
    486 O3'       -36.7500   18.1350  -13.4390 O.3      16   G31      -0.5246
    487 C2'       -34.5760   17.0160  -13.4570 C.3      16   G31       0.0670
    488 O2'       -34.2410   17.7230  -14.6460 O.3      16   G31      -0.6139
    489 C1'       -33.4180   17.0490  -12.4530 C.3      16   G31       0.0191
    490 N9        -33.4930   15.9100  -11.5330 N.ar     16   G31       0.0492
    491 C8        -33.8240   15.8470  -10.1950 C.ar     16   G31       0.1374
    492 N7        -33.8310   14.6190   -9.7060 N.ar     16   G31      -0.5709
    493 C5        -33.4610   13.8490  -10.7940 C.ar     16   G31       0.1744
    494 C6        -33.2950   12.4520  -10.9050 C.2      16   G31       0.4770
    495 O6        -33.4280   11.6000  -10.0060 O.2      16   G31      -0.5597
    496 N1        -32.9410   12.0730  -12.2040 N.am     16   G31      -0.4787
    497 C2        -32.7700   12.9270  -13.2740 C.2      16   G31       0.7657
    498 N2        -32.4130   12.3840  -14.4670 N.pl3    16   G31      -0.9672
    499 N3        -32.9220   14.2400  -13.1620 N.2      16   G31      -0.6323
    500 C4        -33.2660   14.6180  -11.9090 C.ar     16   G31       0.1222
    501 H5'       -36.4369   19.9577  -11.1358 H        16   G31       0.0679
    502 H5''      -34.8050   20.3884  -10.5729 H        16   G31       0.0679
    503 H4'       -34.6766   19.5969  -12.8663 H        16   G31       0.1174
    504 H3'       -36.0065   17.0548  -11.8307 H        16   G31       0.0615
    505 H2'       -34.8594   15.9886  -13.6857 H        16   G31       0.0972
    506 H1'       -32.4586   17.0655  -12.9701 H        16   G31       0.2006
    507 H8        -34.0558   16.7197   -9.6025 H        16   G31       0.1640
    508 H1        -32.7980   11.0877  -12.3736 H        16   G31       0.3424
    509 H21       -32.2895   11.3851  -14.5504 H        16   G31       0.4364
    510 H22       -32.2711   12.9792  -15.2705 H        16   G31       0.4364
    511 HO2'      -33.4704   17.3192  -15.0518 H        16   G31       0.4186
    512 P         -38.0380   17.2280  -13.6350 P.3      17   G32       1.1662
    513 OP1       -38.9970   18.0010  -14.4860 O.co2    17   G32      -0.7760
    514 OP2       -38.4640   16.6250  -12.3470 O.co2    17   G32      -0.7760
    515 O5'       -37.5000   15.9860  -14.5020 O.3      17   G32      -0.4989
    516 C5'       -36.9660   16.1490  -15.8230 C.3      17   G32       0.0558
    517 C4'       -36.5630   14.7730  -16.3340 C.3      17   G32       0.1065
    518 O4'       -35.4920   14.2330  -15.5240 O.3      17   G32      -0.3548
    519 C3'       -37.6380   13.7140  -16.1950 C.3      17   G32       0.2022
    520 O3'       -38.5270   13.8250  -17.2730 O.3      17   G32      -0.5246
    521 C2'       -36.8190   12.4460  -16.3180 C.3      17   G32       0.0670
    522 O2'       -36.3230   12.1990  -17.6300 O.3      17   G32      -0.6139
    523 C1'       -35.6510   12.8230  -15.4160 C.3      17   G32       0.0191
    524 N9        -35.9230   12.4790  -14.0220 N.ar     17   G32       0.0492
    525 C8        -36.1790   13.3440  -12.9860 C.ar     17   G32       0.1374
    526 N7        -36.3770   12.7580  -11.8350 N.ar     17   G32      -0.5709
    527 C5        -36.2400   11.4130  -12.1250 C.ar     17   G32       0.1744
    528 C6        -36.3570   10.3010  -11.2690 C.2      17   G32       0.4770
    529 O6        -36.5990   10.3020  -10.0560 O.2      17   G32      -0.5597
    530 N1        -36.1470    9.1060  -11.9370 N.am     17   G32      -0.4787
    531 C2        -35.8730    9.0050  -13.2870 C.2      17   G32       0.7657
    532 N2        -35.7170    7.7670  -13.7800 N.pl3    17   G32      -0.9672
    533 N3        -35.7660   10.0440  -14.1120 N.2      17   G32      -0.6323
    534 C4        -35.9700   11.2180  -13.4700 C.ar     17   G32       0.1222
    535 H5'       -36.0946   16.8031  -15.7926 H        17   G32       0.0679
    536 H5''      -37.7255   16.5771  -16.4772 H        17   G32       0.0679
    537 H4'       -36.2430   14.8425  -17.3736 H        17   G32       0.1174
    538 H3'       -38.1508   13.7769  -15.2352 H        17   G32       0.0615
    539 H2'       -37.3601   11.5837  -15.9285 H        17   G32       0.0972
    540 H1'       -34.7444   12.3201  -15.7526 H        17   G32       0.2006
    541 H8        -36.2136   14.4161  -13.1120 H        17   G32       0.1640
    542 H1        -36.1976    8.2514  -11.4012 H        17   G32       0.3424
    543 H21       -35.7980    6.9664  -13.1696 H        17   G32       0.4364
    544 H22       -35.5185    7.6356  -14.7616 H        17   G32       0.4364
    545 HO2'      -35.6877   11.4799  -17.6018 H        17   G32       0.4186
    546 P         -39.9990   13.3200  -17.1380 P.3      18   A33       1.1662
    547 OP1       -40.6610   13.8750  -18.3550 O.co2    18   A33      -0.7760
    548 OP2       -40.5830   13.5400  -15.8070 O.co2    18   A33      -0.7760
    549 O5'       -39.9050   11.7220  -17.2960 O.3      18   A33      -0.4989
    550 C5'       -39.4210   11.1940  -18.5220 C.3      18   A33       0.0558
    551 C4'       -39.3120    9.6870  -18.3670 C.3      18   A33       0.1065
    552 O4'       -38.4170    9.3590  -17.2850 O.3      18   A33      -0.3548
    553 C3'       -40.5750    9.0090  -17.9040 C.3      18   A33       0.2022
    554 O3'       -41.4890    8.8730  -18.9740 O.3      18   A33      -0.5246
    555 C2'       -40.0490    7.6510  -17.4550 C.3      18   A33       0.0670
    556 O2'       -39.6950    6.8370  -18.5680 O.3      18   A33      -0.6139
    557 C1'       -38.7730    8.0960  -16.7390 C.3      18   A33       0.0394
    558 N9        -38.9250    8.2080  -15.2770 N.ar     18   A33      -0.0251
    559 C8        -38.9310    9.3630  -14.5320 C.ar     18   A33       0.2006
    560 N7        -39.0730    9.1420  -13.2400 N.ar     18   A33      -0.6073
    561 C5        -39.1580    7.7550  -13.1430 C.ar     18   A33       0.0515
    562 C6        -39.3070    6.8720  -12.0550 C.ar     18   A33       0.7009
    563 N6        -39.4160    7.2820  -10.7760 N.pl3    18   A33      -0.9019
    564 N1        -39.3760    5.5390  -12.3130 N.ar     18   A33      -0.7615
    565 C2        -39.2670    5.1040  -13.5750 C.ar     18   A33       0.5875
    566 N3        -39.0980    5.8390  -14.6760 N.ar     18   A33      -0.6997
    567 C4        -39.0650    7.1660  -14.3980 C.ar     18   A33       0.3053
    568 H5'       -40.1137   11.4346  -19.3285 H        18   A33       0.0679
    569 H5''      -38.4394   11.6137  -18.7419 H        18   A33       0.0679
    570 H4'       -38.9614    9.2370  -19.2958 H        18   A33       0.1174
    571 H3'       -41.0256    9.5486  -17.0710 H        18   A33       0.0615
    572 H2'       -40.7415    7.1457  -16.7818 H        18   A33       0.0972
    573 H1'       -37.9792    7.3815  -16.9570 H        18   A33       0.2007
    574 H8        -38.8299   10.3492  -14.9605 H        18   A33       0.1553
    575 H2        -39.3223    4.0350  -13.7182 H        18   A33       0.0473
    576 HO2'      -39.5760    5.9300  -18.2767 H        18   A33       0.4186
    577 H61       -39.2938    6.5009  -10.1474 H        18   A33       0.4115
    578 H62       -39.5942    8.2334  -10.4875 H        18   A33       0.4115
    579 P         -43.0460    8.9390  -18.7050 P.3      19   U34       1.1662
    580 OP1       -43.6690    8.9050  -20.0560 O.co2    19   U34      -0.7760
    581 OP2       -43.3590   10.0500  -17.7570 O.co2    19   U34      -0.7760
    582 O5'       -43.3980    7.5860  -17.9470 O.3      19   U34      -0.4989
    583 C5'       -43.0870    6.3260  -18.5430 C.3      19   U34       0.0558
    584 C4'       -43.2490    5.2280  -17.5050 C.3      19   U34       0.1065
    585 O4'       -42.3800    5.5320  -16.3630 O.3      19   U34      -0.3548
    586 C3'       -44.6680    5.0880  -16.9790 C.3      19   U34       0.2022
    587 O3'       -45.0110    3.7380  -16.8560 O.3      19   U34      -0.5246
    588 C2'       -44.5720    5.6970  -15.5900 C.3      19   U34       0.0670
    589 O2'       -45.5230    5.1740  -14.6840 O.3      19   U34      -0.6139
    590 C1'       -43.1350    5.3690  -15.1860 C.3      19   U34       0.0674
    591 N1        -42.7780    6.3880  -14.1790 N.am     19   U34       0.0418
    592 C2        -42.6630    6.0240  -12.8510 C.2      19   U34       0.4687
    593 O2        -42.7750    4.8790  -12.4510 O.2      19   U34      -0.5477
    594 N3        -42.3990    7.0800  -11.9950 N.am     19   U34      -0.3549
    595 C4        -42.2640    8.4070  -12.3460 C.2      19   U34       0.5952
    596 O4        -42.0230    9.2240  -11.4660 O.2      19   U34      -0.5761
    597 C5        -42.4100    8.7130  -13.7510 C.2      19   U34      -0.3635
    598 C6        -42.6710    7.6990  -14.5940 C.2      19   U34      -0.1126
    599 H5'       -43.7632    6.1410  -19.3776 H        19   U34       0.0679
    600 H5''      -42.0584    6.3376  -18.9033 H        19   U34       0.0679
    601 H4'       -42.9389    4.2791  -17.9426 H        19   U34       0.1174
    602 H3'       -45.3809    5.6265  -17.6034 H        19   U34       0.0615
    603 H2'       -44.6921    6.7782  -15.6585 H        19   U34       0.0972
    604 H1'       -43.0481    4.3585  -14.7868 H        19   U34       0.1824
    605 H3        -42.2949    6.8561  -11.0157 H        19   U34       0.3154
    606 H5        -42.3123    9.7259  -14.1127 H        19   U34       0.1811
    607 H6        -42.8028    7.9207  -15.6428 H        19   U34       0.2188
    608 HO2'      -46.3996    5.2309  -15.0712 H        19   U34       0.4186
    609 P         -46.0340    3.0680  -17.8840 P.3      20   A35       1.1662
    610 OP1       -45.6640    3.4810  -19.2590 O.co2    20   A35      -0.7760
    611 OP2       -47.4110    3.3350  -17.4330 O.co2    20   A35      -0.7760
    612 O5'       -45.7680    1.5310  -17.6500 O.3      20   A35      -0.4989
    613 C5'       -44.5800    0.9060  -18.1490 C.3      20   A35       0.0558
    614 C4'       -44.6890   -0.5720  -17.8410 C.3      20   A35       0.1065
    615 O4'       -44.6390   -0.7690  -16.4050 O.3      20   A35      -0.3548
    616 C3'       -46.0180   -1.1620  -18.2960 C.3      20   A35       0.2022
    617 O3'       -45.7850   -2.4330  -18.8870 O.3      20   A35      -0.5246
    618 C2'       -46.8160   -1.2300  -16.9830 C.3      20   A35       0.0670
    619 O2'       -47.7910   -2.2520  -16.9890 O.3      20   A35      -0.6139
    620 C1'       -45.7520   -1.4610  -15.9060 C.3      20   A35       0.0394
    621 N9        -46.1180   -0.8030  -14.6460 N.ar     20   A35      -0.0251
    622 C8        -45.9080    0.5140  -14.3320 C.ar     20   A35       0.2006
    623 N7        -46.3580    0.8610  -13.1460 N.ar     20   A35      -0.6073
    624 C5        -46.9170   -0.3030  -12.6610 C.ar     20   A35       0.0515
    625 C6        -47.5730   -0.6160  -11.4500 C.ar     20   A35       0.7009
    626 N6        -47.7650    0.2670  -10.4610 N.pl3    20   A35      -0.9019
    627 N1        -47.9850   -1.8880  -11.2800 N.ar     20   A35      -0.7615
    628 C2        -47.7850   -2.7960  -12.2480 C.ar     20   A35       0.5875
    629 N3        -47.1900   -2.6180  -13.4360 N.ar     20   A35      -0.6997
    630 C4        -46.7800   -1.3410  -13.5690 C.ar     20   A35       0.3053
    631 H5'       -44.5019    1.0583  -19.2255 H        20   A35       0.0679
    632 H5''      -43.7049    1.3242  -17.6516 H        20   A35       0.0679
    633 H4'       -43.8668   -1.1083  -18.3149 H        20   A35       0.1174
    634 H3'       -46.5079   -0.4955  -19.0058 H        20   A35       0.0615
    635 H2'       -47.3023   -0.2703  -16.8078 H        20   A35       0.0972
    636 H1'       -45.5411   -2.5210  -15.7643 H        20   A35       0.2007
    637 H8        -45.4163    1.2061  -14.9996 H        20   A35       0.1553
    638 H2        -48.1481   -3.7926  -12.0448 H        20   A35       0.0473
    639 H61       -47.1663    1.0639  -10.6243 H        20   A35       0.4115
    640 H62       -48.4005    0.1549   -9.6841 H        20   A35       0.4115
    641 HO2'      -48.1270   -2.3685  -17.8807 H        20   A35       0.4186
    642 P         -45.7860   -2.5730  -20.4920 P.3      21   U36       1.1662
    643 OP1       -46.9710   -1.9000  -21.0530 O.co2    21   U36      -0.7760
    644 OP2       -45.5460   -4.0260  -20.7600 O.co2    21   U36      -0.7760
    645 O5'       -44.5350   -1.6940  -20.9190 O.3      21   U36      -0.4989
    646 C5'       -43.2420   -2.2760  -21.1310 C.3      21   U36       0.0558
    647 C4'       -42.5170   -1.4730  -22.1980 C.3      21   U36       0.1065
    648 O4'       -43.3060   -1.4510  -23.4060 O.3      21   U36      -0.3548
    649 C3'       -42.2340   -0.0030  -21.8710 C.3      21   U36       0.2022
    650 O3'       -40.9940    0.3640  -22.4780 O.3      21   U36      -0.5246
    651 C2'       -43.3850    0.7120  -22.5650 C.3      21   U36       0.0670
    652 O2'       -43.1170    2.0790  -22.8350 O.3      21   U36      -0.6139
    653 C1'       -43.4450   -0.1100  -23.8530 C.3      21   U36       0.0674
    654 N1        -44.7310    0.0350  -24.5550 N.am     21   U36       0.0418
    655 C2        -44.7560    0.5960  -25.8170 C.2      21   U36       0.4687
    656 O2        -43.7640    0.9670  -26.3850 O.2      21   U36      -0.5477
    657 N3        -46.0040    0.7060  -26.3940 N.am     21   U36      -0.3549
    658 C4        -47.2020    0.2950  -25.8320 C.2      21   U36       0.5952
    659 O4        -48.2600    0.4480  -26.4300 O.2      21   U36      -0.5761
    660 C5        -47.1000   -0.2860  -24.5190 C.2      21   U36      -0.3635
    661 C6        -45.9010   -0.3940  -23.9410 C.2      21   U36      -0.1126
    662 H5'       -42.6718   -2.2513  -20.2024 H        21   U36       0.0679
    663 H5''      -43.3553   -3.3079  -21.4635 H        21   U36       0.0679
    664 H4'       -41.5693   -1.9658  -22.4150 H        21   U36       0.1174
    665 H3'       -42.2304    0.1807  -20.7966 H        21   U36       0.0615
    666 H2'       -44.3074    0.6043  -21.9943 H        21   U36       0.0972
    667 H1'       -42.6199    0.1577  -24.5130 H        21   U36       0.1824
    668 H3        -46.0488    1.1252  -27.3118 H        21   U36       0.3154
    669 H5        -47.9853   -0.6315  -24.0059 H        21   U36       0.1811
    670 H6        -45.8384   -0.8327  -22.9561 H        21   U36       0.2188
    671 HO2'      -43.0853    2.5684  -22.0097 H        21   U36       0.4186
    672 P         -39.5710    0.1810  -21.7880 P.3      22   G37       1.1662
    673 OP1       -38.5540    0.5160  -22.8030 O.co2    22   G37      -0.7760
    674 OP2       -39.5170   -1.1260  -21.0740 O.co2    22   G37      -0.7760
    675 O5'       -39.6380    1.3510  -20.6850 O.3      22   G37      -0.4989
    676 C5'       -39.4790    2.7340  -20.9680 C.3      22   G37       0.0558
    677 C4'       -39.4450    3.4820  -19.6380 C.3      22   G37       0.1065
    678 O4'       -40.6690    3.2260  -18.9140 O.3      22   G37      -0.3548
    679 C3'       -38.3780    2.9580  -18.6950 C.3      22   G37       0.2022
    680 O3'       -37.1120    3.5310  -18.9650 O.3      22   G37      -0.5246
    681 C2'       -38.9140    3.3640  -17.3280 C.3      22   G37       0.0670
    682 O2'       -38.7120    4.7530  -17.1430 O.3      22   G37      -0.6139
    683 C1'       -40.3990    3.0510  -17.5170 C.3      22   G37       0.0191
    684 N9        -40.7830    1.6810  -17.1430 N.ar     22   G37       0.0492
    685 C8        -40.7350    0.5540  -17.9350 C.ar     22   G37       0.1374
    686 N7        -41.1430   -0.5370  -17.3310 N.ar     22   G37      -0.5709
    687 C5        -41.5140   -0.0890  -16.0650 C.ar     22   G37       0.1744
    688 C6        -42.0320   -0.8100  -14.9630 C.2      22   G37       0.4770
    689 O6        -42.2860   -2.0080  -14.8720 O.2      22   G37      -0.5597
    690 N1        -42.2750    0.0160  -13.8570 N.am     22   G37      -0.4787
    691 C2        -42.0210    1.3630  -13.8290 C.2      22   G37       0.7657
    692 N2        -42.3230    1.9860  -12.6720 N.pl3    22   G37      -0.9672
    693 N3        -41.5250    2.0590  -14.8510 N.2      22   G37      -0.6323
    694 C4        -41.2990    1.2670  -15.9390 C.ar     22   G37       0.1222
    695 H5'       -38.5467    2.8968  -21.5087 H        22   G37       0.0679
    696 H5''      -40.3186    3.0862  -21.5673 H        22   G37       0.0679
    697 H4'       -39.3161    4.5515  -19.8043 H        22   G37       0.1174
    698 H3'       -38.3187    1.8719  -18.7651 H        22   G37       0.0615
    699 H2'       -38.4713    2.7759  -16.5241 H        22   G37       0.0972
    700 H1'       -40.9934    3.7617  -16.9429 H        22   G37       0.2006
    701 H8        -40.3928    0.5677  -18.9593 H        22   G37       0.1640
    702 H1        -42.6624   -0.4087  -13.0266 H        22   G37       0.3424
    703 H21       -42.7040    1.4590  -11.8992 H        22   G37       0.4364
    704 H22       -42.1683    2.9797  -12.5781 H        22   G37       0.4364
    705 HO2'      -38.9668    4.9978  -16.2504 H        22   G37       0.4186
    706 P         -35.7370    2.7650  -18.6870 P.3      23   G38       1.1662
    707 OP1       -34.6740    3.6160  -19.2350 O.co2    23   G38      -0.7760
    708 OP2       -35.8950    1.3500  -19.1320 O.co2    23   G38      -0.7760
    709 O5'       -35.6570    2.7570  -17.0800 O.3      23   G38      -0.4989
    710 C5'       -35.3990    3.9830  -16.3570 C.3      23   G38       0.0558
    711 C4'       -35.6080    3.6990  -14.8790 C.3      23   G38       0.1065
    712 O4'       -36.9910    3.3470  -14.7020 O.3      23   G38      -0.3548
    713 C3'       -34.8160    2.5290  -14.3510 C.3      23   G38       0.2022
    714 O3'       -33.4930    2.8980  -14.0190 O.3      23   G38      -0.5246
    715 C2'       -35.6800    2.1580  -13.1440 C.3      23   G38       0.0670
    716 O2'       -35.3740    2.9300  -11.9770 O.3      23   G38      -0.6139
    717 C1'       -37.1270    2.4110  -13.6620 C.3      23   G38       0.0191
    718 N9        -37.6380    1.1330  -14.1630 N.ar     23   G38       0.0492
    719 C8        -37.3450    0.5330  -15.3660 C.ar     23   G38       0.1374
    720 N7        -37.8610   -0.6680  -15.4730 N.ar     23   G38      -0.5709
    721 C5        -38.5220   -0.8600  -14.2740 C.ar     23   G38       0.1744
    722 C6        -39.2720   -1.9630  -13.8170 C.2      23   G38       0.4770
    723 O6        -39.4780   -3.0320  -14.4180 O.2      23   G38      -0.5597
    724 N1        -39.7870   -1.7830  -12.5420 N.am     23   G38      -0.4787
    725 C2        -39.6010   -0.6520  -11.7950 C.2      23   G38       0.7657
    726 N2        -40.1680   -0.6300  -10.5870 N.pl3    23   G38      -0.9672
    727 N3        -38.9270    0.3900  -12.2230 N.2      23   G38      -0.6323
    728 C4        -38.3940    0.2320  -13.4580 C.ar     23   G38       0.1222
    729 H5'       -34.3733    4.3080  -16.5312 H        23   G38       0.0679
    730 H5''      -36.0921    4.7576  -16.6853 H        23   G38       0.0679
    731 H4'       -35.3782    4.5914  -14.2969 H        23   G38       0.1174
    732 H3'       -34.8114    1.7163  -15.0774 H        23   G38       0.0615
    733 H2'       -35.5550    1.0985  -12.9207 H        23   G38       0.0972
    734 H1'       -37.7631    2.8007  -12.8673 H        23   G38       0.2006
    735 H8        -36.7536    1.0008  -16.1392 H        23   G38       0.1640
    736 H1        -40.3325   -2.5323  -12.1406 H        23   G38       0.3424
    737 H21       -40.6948   -1.4280  -10.2618 H        23   G38       0.4364
    738 H22       -40.0703    0.1847   -9.9981 H        23   G38       0.4364
    739 HO2'      -34.5836    2.5794  -11.5599 H        23   G38       0.4186
    740 P         -32.2130    2.0610  -14.4320 P.3      24   C39       1.1662
    741 OP1       -32.6420    0.8090  -15.1180 O.co2    24   C39      -0.7760
    742 OP2       -31.2700    2.0880  -13.2950 O.co2    24   C39      -0.7760
    743 O5'       -31.5240    2.9480  -15.5870 O.3      24   C39      -0.4989
    744 C5'       -30.5940    3.9970  -15.2330 C.3      24   C39       0.0558
    745 C4'       -30.9430    5.2050  -16.0900 C.3      24   C39       0.1065
    746 O4'       -32.2790    5.6830  -15.7890 O.3      24   C39      -0.3548
    747 C3'       -30.0430    6.4040  -15.8970 C.3      24   C39       0.2022
    748 O3'       -28.9540    6.3190  -16.8030 O.3      24   C39      -0.5246
    749 C2'       -30.9720    7.5710  -16.2200 C.3      24   C39       0.0670
    750 O2'       -31.0980    7.7960  -17.6140 O.3      24   C39      -0.6139
    751 C1'       -32.2930    7.0950  -15.6320 C.3      24   C39       0.0066
    752 N1        -32.4840    7.4890  -14.1850 N.am     24   C39      -0.0484
    753 C2        -32.5720    8.8540  -13.9020 C.2      24   C39       0.7538
    754 O2        -32.4860    9.6570  -14.8350 O.2      24   C39      -0.6252
    755 N3        -32.7480    9.2470  -12.6140 N.2      24   C39      -0.7584
    756 C4        -32.8490    8.3420  -11.6340 C.2      24   C39       0.8185
    757 N4        -33.0240    8.7940  -10.3830 N.pl3    24   C39      -0.9530
    758 C5        -32.7600    6.9360  -11.8930 C.2      24   C39      -0.5215
    759 C6        -32.5900    6.5620  -13.1750 C.2      24   C39       0.0053
    760 H5'       -30.6941    4.2456  -14.1765 H        24   C39       0.0679
    761 H5''      -29.5741    3.6751  -15.4434 H        24   C39       0.0679
    762 H4'       -30.9077    4.9091  -17.1385 H        24   C39       0.1174
    763 H3'       -29.6888    6.4625  -14.8678 H        24   C39       0.0615
    764 H2'       -30.6351    8.4771  -15.7165 H        24   C39       0.0972
    765 H1'       -33.1115    7.5080  -16.2216 H        24   C39       0.2029
    766 H5        -32.8262    6.2095  -11.0966 H        24   C39       0.1928
    767 H6        -32.5357    5.5105  -13.4155 H        24   C39       0.1958
    768 H41       -33.0805    9.7871  -10.2081 H        24   C39       0.4234
    769 H42       -33.0993    8.1411   -9.6161 H        24   C39       0.4234
    770 HO2'      -30.3929    8.3764  -17.9100 H        24   C39       0.4186
    771 P         -27.5720    7.0280  -16.4620 P.3      25   A40       1.1662
    772 OP1       -26.6890    6.6550  -17.6260 O.co2    25   A40      -0.7760
    773 OP2       -27.1750    6.7780  -15.0650 O.co2    25   A40      -0.7760
    774 O5'       -27.9230    8.5900  -16.5940 O.3      25   A40      -0.4989
    775 C5'       -27.9870    9.1980  -17.8790 C.3      25   A40       0.0558
    776 C4'       -28.0600   10.7120  -17.6940 C.3      25   A40       0.1065
    777 O4'       -29.2440   11.0830  -16.9610 O.3      25   A40      -0.3548
    778 C3'       -26.9460   11.2970  -16.8600 C.3      25   A40       0.2022
    779 O3'       -25.7060   11.3890  -17.5670 O.3      25   A40      -0.5246
    780 C2'       -27.5150   12.6620  -16.4770 C.3      25   A40       0.0670
    781 O2'       -27.6030   13.5890  -17.5680 O.3      25   A40      -0.6139
    782 C1'       -28.9050   12.1910  -16.1180 C.3      25   A40       0.0394
    783 N9        -29.1060   11.7320  -14.7420 N.ar     25   A40      -0.0251
    784 C8        -29.1290   10.4270  -14.2870 C.ar     25   A40       0.2006
    785 N7        -29.3930   10.3290  -12.9980 N.ar     25   A40      -0.6073
    786 C5        -29.5730   11.6440  -12.5860 C.ar     25   A40       0.0515
    787 C6        -29.8610   12.2410  -11.3260 C.ar     25   A40       0.7009
    788 N6        -30.0830   11.5560  -10.1850 N.pl3    25   A40      -0.9019
    789 N1        -29.9470   13.5920  -11.3060 N.ar     25   A40      -0.7615
    790 C2        -29.7460   14.3100  -12.4140 C.ar     25   A40       0.5875
    791 N3        -29.4670   13.8560  -13.6350 N.ar     25   A40      -0.6997
    792 C4        -29.3850   12.5150  -13.6480 C.ar     25   A40       0.3053
    793 H5'       -27.0968    8.9401  -18.4527 H        25   A40       0.0679
    794 H5''      -28.8758    8.8498  -18.4053 H        25   A40       0.0679
    795 H4'       -28.0729   11.1956  -18.6708 H        25   A40       0.1174
    796 H3'       -26.8090   10.6948  -15.9618 H        25   A40       0.0615
    797 H2'       -26.9975   13.0918  -15.6194 H        25   A40       0.0972
    798 H1'       -29.6056   13.0020  -16.3165 H        25   A40       0.2007
    799 H8        -28.9489    9.5729  -14.9230 H        25   A40       0.1553
    800 H2        -29.8179   15.3824  -12.3079 H        25   A40       0.0473
    801 H61       -30.3569   12.1401   -9.4079 H        25   A40       0.4115
    802 H62       -29.9845   10.5533  -10.1146 H        25   A40       0.4115
    803 HO2'      -26.7230   13.8930  -17.8020 H        25   A40       0.4186
    804 P         -24.2980   11.3200  -16.8660 P.3      26   C41       1.1662
    805 OP1       -23.3360   11.3710  -18.0110 O.co2    26   C41      -0.7760
    806 OP2       -24.2440   10.2170  -15.8610 O.co2    26   C41      -0.7760
    807 O5'       -24.2400   12.6560  -15.9810 O.3      26   C41      -0.4989
    808 C5'       -24.1750   13.9150  -16.6450 C.3      26   C41       0.0558
    809 C4'       -24.3100   15.0490  -15.6470 C.3      26   C41       0.1065
    810 O4'       -25.6320   15.0090  -15.0740 O.3      26   C41      -0.3548
    811 C3'       -23.4320   14.9850  -14.4140 C.3      26   C41       0.2022
    812 O3'       -22.0990   15.3790  -14.6930 O.3      26   C41      -0.5246
    813 C2'       -24.1650   15.9510  -13.4920 C.3      26   C41       0.0670
    814 O2'       -24.0800   17.2910  -13.9650 O.3      26   C41      -0.6139
    815 C1'       -25.5710   15.4250  -13.7040 C.3      26   C41       0.0066
    816 N1        -25.8810   14.2910  -12.7580 N.am     26   C41      -0.0484
    817 C2        -26.3110   14.6470  -11.4770 C.2      26   C41       0.7538
    818 O2        -26.3890   15.8530  -11.2260 O.2      26   C41      -0.6252
    819 N3        -26.6030   13.6800  -10.5720 N.2      26   C41      -0.7584
    820 C4        -26.4900   12.3930  -10.9290 C.2      26   C41       0.8185
    821 N4        -26.7960   11.4770  -10.0050 N.pl3    26   C41      -0.9530
    822 C5        -26.0440   12.0000  -12.2300 C.2      26   C41      -0.5215
    823 C6        -25.7500   12.9630  -13.1170 C.2      26   C41       0.0053
    824 H5'       -24.9843   13.9791  -17.3723 H        26   C41       0.0679
    825 H5''      -23.2189   14.0012  -17.1613 H        26   C41       0.0679
    826 H4'       -24.1598   16.0022  -16.1539 H        26   C41       0.1174
    827 H3'       -23.4468   13.9795  -13.9936 H        26   C41       0.0615
    828 H2'       -23.8414   15.8579  -12.4553 H        26   C41       0.0972
    829 H1'       -26.2847   16.2328  -13.5421 H        26   C41       0.2029
    830 H5        -25.9465   10.9566  -12.4913 H        26   C41       0.1928
    831 H6        -25.4119   12.7009  -14.1087 H        26   C41       0.1958
    832 H41       -27.1032   11.7679   -9.0879 H        26   C41       0.4234
    833 H42       -26.7200   10.4939  -10.2239 H        26   C41       0.4234
    834 HO2'      -23.1892   17.6226  -13.8301 H        26   C41       0.4186
    835 P         -20.8770   14.7740  -13.8970 P.3      27   G42       1.1662
    836 OP1       -19.6000   15.2570  -14.4890 O.co2    27   G42      -0.7760
    837 OP2       -21.1220   13.3090  -13.7450 O.co2    27   G42      -0.7760
    838 O5'       -21.0450   15.3790  -12.4380 O.3      27   G42      -0.4989
    839 C5'       -20.9250   16.8010  -12.2310 C.3      27   G42       0.0558
    840 C4'       -21.3760   17.1960  -10.8330 C.3      27   G42       0.1065
    841 O4'       -22.7530   16.8110  -10.6230 O.3      27   G42      -0.3548
    842 C3'       -20.6530   16.5300   -9.6730 C.3      27   G42       0.2022
    843 O3'       -19.3750   17.0960   -9.4490 O.3      27   G42      -0.5246
    844 C2'       -21.6380   16.8410   -8.5580 C.3      27   G42       0.0670
    845 O2'       -21.5940   18.1970   -8.1710 O.3      27   G42      -0.6139
    846 C1'       -22.9610   16.5360   -9.2500 C.3      27   G42       0.0191
    847 N9        -23.3350   15.1330   -9.0850 N.ar     27   G42       0.0492
    848 C8        -23.2440   14.1030   -9.9990 C.ar     27   G42       0.1374
    849 N7        -23.6400   12.9410   -9.5140 N.ar     27   G42      -0.5709
    850 C5        -24.0200   13.2430   -8.2020 C.ar     27   G42       0.1744
    851 C6        -24.5350   12.4100   -7.1730 C.2      27   G42       0.4770
    852 O6        -24.7800   11.2030   -7.2170 O.2      27   G42      -0.5597
    853 N1        -24.7720   13.1270   -6.0080 N.am     27   G42      -0.4787
    854 C2        -24.5350   14.4750   -5.8320 C.2      27   G42       0.7657
    855 N2        -24.8230   14.9580   -4.6210 N.pl3    27   G42      -0.9672
    856 N3        -24.0510   15.2870   -6.7760 N.2      27   G42      -0.6323
    857 C4        -23.8120   14.5850   -7.9240 C.ar     27   G42       0.1222
    858 H5'       -19.8830   17.0923  -12.3633 H        27   G42       0.0679
    859 H5''      -21.5384   17.3226  -12.9657 H        27   G42       0.0679
    860 H4'       -21.2918   18.2776  -10.7273 H        27   G42       0.1174
    861 H3'       -20.5766   15.4544   -9.8319 H        27   G42       0.0615
    862 H2'       -21.4822   16.1838   -7.7025 H        27   G42       0.0972
    863 H1'       -23.7462   17.1806   -8.8550 H        27   G42       0.2006
    864 H8        -22.8850   14.2344  -11.0091 H        27   G42       0.1640
    865 H1        -25.1504   12.6183   -5.2218 H        27   G42       0.3424
    866 H21       -25.1889   14.3449   -3.9067 H        27   G42       0.4364
    867 H22       -24.6749   15.9365   -4.4193 H        27   G42       0.4364
    868 HO2'      -22.3158   18.3802   -7.5651 H        27   G42       0.4186
    869 P         -18.2630   16.3570   -8.5770 P.3      28   C43       1.1662
    870 OP1       -17.0380   17.1930   -8.6520 O.co2    28   C43      -0.7760
    871 OP2       -18.2320   14.9330   -8.9770 O.co2    28   C43      -0.7760
    872 O5'       -18.8400   16.4410   -7.0880 O.3      28   C43      -0.4989
    873 C5'       -18.8900   17.6860   -6.3880 C.3      28   C43       0.0558
    874 C4'       -19.4670   17.5050   -5.0000 C.3      28   C43       0.1065
    875 O4'       -20.7980   16.9420   -5.0450 O.3      28   C43      -0.3548
    876 C3'       -18.7180   16.5130   -4.1470 C.3      28   C43       0.2022
    877 O3'       -17.5650   17.1510   -3.6740 O.3      28   C43      -0.5246
    878 C2'       -19.7500   16.2210   -3.0650 C.3      28   C43       0.0670
    879 O2'       -19.9440   17.2890   -2.1610 O.3      28   C43      -0.6139
    880 C1'       -21.0030   16.0960   -3.9180 C.3      28   C43       0.0066
    881 N1        -21.3070   14.6690   -4.3380 N.am     28   C43      -0.0484
    882 C2        -21.9550   13.8040   -3.4320 C.2      28   C43       0.7538
    883 O2        -22.2750   14.2260   -2.3040 O.2      28   C43      -0.6252
    884 N3        -22.2260   12.5290   -3.8230 N.2      28   C43      -0.7584
    885 C4        -21.8670   12.1030   -5.0430 C.2      28   C43       0.8185
    886 N4        -22.1560   10.8430   -5.3780 N.pl3    28   C43      -0.9530
    887 C5        -21.2090   12.9630   -5.9780 C.2      28   C43      -0.5215
    888 C6        -20.9460   14.2150   -5.5850 C.2      28   C43       0.0053
    889 H5'       -19.5151   18.3835   -6.9456 H        28   C43       0.0679
    890 H5''      -17.8821   18.0930   -6.3073 H        28   C43       0.0679
    891 H4'       -19.4982   18.4689   -4.4920 H        28   C43       0.1174
    892 H3'       -18.4700   15.6137   -4.7107 H        28   C43       0.0615
    893 H2'       -19.5283   15.2906   -2.5423 H        28   C43       0.0972
    894 H1'       -21.8500   16.4774   -3.3478 H        28   C43       0.2029
    895 H5        -20.9350   12.6152   -6.9631 H        28   C43       0.1928
    896 H6        -20.4382   14.8847   -6.2632 H        28   C43       0.1958
    897 H41       -22.6260   10.2401   -4.7179 H        28   C43       0.4234
    898 H42       -21.9046   10.4930   -6.2915 H        28   C43       0.4234
    899 HO2'      -19.1642   17.3880   -1.6099 H        28   C43       0.4186
    900 P         -16.2830   16.2880   -3.3050 P.3      29   A44       1.1662
    901 OP1       -15.1900   17.2480   -3.0090 O.co2    29   A44      -0.7760
    902 OP2       -16.0500   15.1820   -4.2550 O.co2    29   A44      -0.7760
    903 O5'       -16.8290   15.7090   -1.9240 O.3      29   A44      -0.4989
    904 C5'       -16.2130   14.6450   -1.2940 C.3      29   A44       0.0558
    905 C4'       -17.0790   14.2720   -0.1150 C.3      29   A44       0.1065
    906 O4'       -18.4990   14.2320   -0.4640 O.3      29   A44      -0.3548
    907 C3'       -16.7580   12.8810    0.3750 C.3      29   A44       0.2022
    908 O3'       -15.6580   12.9930    1.2630 O.3      29   A44      -0.5246
    909 C2'       -18.0940   12.4670    0.9940 C.3      29   A44       0.0670
    910 O2'       -18.3730   13.1100    2.2250 O.3      29   A44      -0.6139
    911 C1'       -19.0470   12.9800   -0.0890 C.3      29   A44       0.0394
    912 N9        -19.1180   12.1350   -1.2830 N.ar     29   A44      -0.0251
    913 C8        -18.6610   12.4520   -2.5370 C.ar     29   A44       0.2006
    914 N7        -18.8300   11.5160   -3.4310 N.ar     29   A44      -0.6073
    915 C5        -19.4540   10.5070   -2.7240 C.ar     29   A44       0.0515
    916 C6        -19.9080    9.2270   -3.1090 C.ar     29   A44       0.7009
    917 N6        -19.7940    8.7630   -4.3590 N.pl3    29   A44      -0.9019
    918 N1        -20.4900    8.4560   -2.1560 N.ar     29   A44      -0.7615
    919 C2        -20.5980    8.9350   -0.9060 C.ar     29   A44       0.5875
    920 N3        -20.2150   10.1220   -0.4250 N.ar     29   A44      -0.6997
    921 C4        -19.6390   10.8670   -1.3940 C.ar     29   A44       0.3053
    922 H5'       -15.2198   14.9360   -0.9521 H        29   A44       0.0679
    923 H5''      -16.1368   13.8013   -1.9799 H        29   A44       0.0679
    924 H4'       -16.9226   14.9874    0.6923 H        29   A44       0.1174
    925 H3'       -16.5075   12.2299   -0.4625 H        29   A44       0.0615
    926 H2'       -18.1608   11.3836    1.0937 H        29   A44       0.0972
    927 H1'       -20.0442   13.1198    0.3282 H        29   A44       0.2007
    928 H8        -18.1982   13.4005   -2.7663 H        29   A44       0.1553
    929 H2        -21.0578    8.2693   -0.1906 H        29   A44       0.0473
    930 H61       -19.3649    9.3346   -5.0727 H        29   A44       0.4115
    931 H62       -20.1370    7.8412   -4.5888 H        29   A44       0.4115
    932 HO2'      -17.7727   12.7845    2.8998 H        29   A44       0.4186
    933 P         -14.3730   12.1010    0.9420 P.3      30   A45       1.1662
    934 OP1       -13.2470   12.6610    1.7270 O.co2    30   A45      -0.7760
    935 OP2       -14.2340   11.8770   -0.5140 O.co2    30   A45      -0.7760
    936 O5'       -14.8140   10.7170    1.5870 O.3      30   A45      -0.4989
    937 C5'       -15.3500   10.7150    2.8930 C.3      30   A45       0.0558
    938 C4'       -16.1580    9.4570    3.0710 C.3      30   A45       0.1065
    939 O4'       -17.2150    9.3810    2.0790 O.3      30   A45      -0.3548
    940 C3'       -15.3570    8.2020    2.7980 C.3      30   A45       0.2022
    941 O3'       -14.5020    7.9200    3.8920 O.3      30   A45      -0.5246
    942 C2'       -16.4830    7.1930    2.6420 C.3      30   A45       0.0670
    943 O2'       -17.0590    6.8210    3.8770 O.3      30   A45      -0.6139
    944 C1'       -17.4700    8.0140    1.8170 C.3      30   A45       0.0394
    945 N9        -17.4040    7.7930    0.3720 N.ar     30   A45      -0.0251
    946 C8        -16.9400    8.6600   -0.5780 C.ar     30   A45       0.2006
    947 N7        -17.0240    8.1990   -1.8060 N.ar     30   A45      -0.6073
    948 C5        -17.5850    6.9440   -1.6530 C.ar     30   A45       0.0515
    949 C6        -17.9440    5.9270   -2.5720 C.ar     30   A45       0.7009
    950 N6        -17.7870    6.0170   -3.8940 N.pl3    30   A45      -0.9019
    951 N1        -18.4810    4.7940   -2.0730 N.ar     30   A45      -0.7615
    952 C2        -18.6570    4.6690   -0.7510 C.ar     30   A45       0.5875
    953 N3        -18.3670    5.5540    0.2030 N.ar     30   A45      -0.6997
    954 C4        -17.8280    6.6750   -0.3150 C.ar     30   A45       0.3053
    955 H5'       -15.9903   11.5865    3.0297 H        30   A45       0.0679
    956 H5''      -14.5400   10.7369    3.6220 H        30   A45       0.0679
    957 H4'       -16.5815    9.4214    4.0747 H        30   A45       0.1174
    958 H3'       -14.7879    8.2966    1.8732 H        30   A45       0.0615
    959 H2'       -16.1469    6.3161    2.0886 H        30   A45       0.0972
    960 H1'       -18.4795    7.7808    2.1554 H        30   A45       0.2007
    961 H8        -16.5407    9.6351   -0.3409 H        30   A45       0.1553
    962 H2        -19.0868    3.7363   -0.4167 H        30   A45       0.0473
    963 H61       -18.4087    5.3154   -4.2699 H        30   A45       0.4115
    964 H62       -17.1826    6.6453   -4.4039 H        30   A45       0.4115
    965 HO2'      -17.8458    6.2945    3.7175 H        30   A45       0.4186
    966 P         -13.1360    7.1290    3.6430 P.3      31   G46       1.1662
    967 OP1       -12.5260    6.9400    4.9810 O.co2    31   G46      -0.7760
    968 OP2       -12.3690    7.7930    2.5730 O.co2    31   G46      -0.7760
    969 O5'       -13.6060    5.7060    3.1010 O.3      31   G46      -0.4989
    970 C5'       -14.2530    4.7700    3.9590 C.3      31   G46       0.0558
    971 C4'       -14.6410    3.5510    3.1540 C.3      31   G46       0.1065
    972 O4'       -15.5630    3.9300    2.0960 O.3      31   G46      -0.3548
    973 C3'       -13.4890    2.8960    2.4080 C.3      31   G46       0.2022
    974 O3'       -12.8070    2.0070    3.2660 O.3      31   G46      -0.5246
    975 C2'       -14.2230    2.1470    1.3020 C.3      31   G46       0.0670
    976 O2'       -14.8590    0.9700    1.7670 O.3      31   G46      -0.6139
    977 C1'       -15.2790    3.1770    0.9260 C.3      31   G46       0.0191
    978 N9        -14.9010    4.0840   -0.1610 N.ar     31   G46       0.0492
    979 C8        -14.2650    5.3000   -0.0660 C.ar     31   G46       0.1374
    980 N7        -14.0830    5.8780   -1.2260 N.ar     31   G46      -0.5709
    981 C5        -14.6470    4.9990   -2.1500 C.ar     31   G46       0.1744
    982 C6        -14.7610    5.0750   -3.5720 C.2      31   G46       0.4770
    983 O6        -14.3750    5.9850   -4.3310 O.2      31   G46      -0.5597
    984 N1        -15.4030    3.9580   -4.1210 N.am     31   G46      -0.4787
    985 C2        -15.8780    2.8980   -3.3850 C.2      31   G46       0.7657
    986 N2        -16.4700    1.9050   -4.0640 N.pl3    31   G46      -0.9672
    987 N3        -15.7680    2.8190   -2.0590 N.2      31   G46      -0.6323
    988 C4        -15.1490    3.8890   -1.5060 C.ar     31   G46       0.1222
    989 H5'       -13.5734    4.4779    4.7596 H        31   G46       0.0679
    990 H5''      -15.1467    5.2244    4.3867 H        31   G46       0.0679
    991 H4'       -15.1161    2.8188    3.8069 H        31   G46       0.1174
    992 H3'       -12.8112    3.6432    1.9952 H        31   G46       0.0615
    993 H2'       -13.5616    1.9339    0.4622 H        31   G46       0.0972
    994 H1'       -16.1848    2.6473    0.6310 H        31   G46       0.2006
    995 H8        -13.9480    5.7338    0.8709 H        31   G46       0.1640
    996 H1        -15.5251    3.9291   -5.1232 H        31   G46       0.3424
    997 H21       -16.5527    1.9597   -5.0691 H        31   G46       0.4364
    998 H22       -16.8333    1.1022   -3.5704 H        31   G46       0.4364
    999 HO2'      -14.1944    0.3140    1.9895 H        31   G46       0.4186
   1000 P         -11.2660    2.2640    3.6640 P.3      32   U47       1.1662
   1001 OP1       -11.0660    1.5040    4.9160 O.co2    32   U47      -0.7760
   1002 OP2       -10.9500    3.7060    3.6160 O.co2    32   U47      -0.7760
   1003 O5'       -10.4740    1.5580    2.4850 O.3      32   U47      -0.4989
   1004 C5'       -10.5480    0.1520    2.3090 C.3      32   U47       0.0558
   1005 C4'        -9.6260   -0.3020    1.1940 C.3      32   U47       0.1065
   1006 O4'       -10.0970    0.2000   -0.0900 O.3      32   U47      -0.3548
   1007 C3'        -8.1780    0.1680    1.3070 C.3      32   U47       0.2022
   1008 O3'        -7.3330   -0.8530    0.8190 O.3      32   U47      -0.5246
   1009 C2'        -8.1410    1.3870    0.3860 C.3      32   U47       0.0670
   1010 O2'        -6.8560    1.6740   -0.1320 O.3      32   U47      -0.6139
   1011 C1'        -9.0560    0.9080   -0.7360 C.3      32   U47       0.0674
   1012 N1         -9.5990    2.0090   -1.5850 N.am     32   U47       0.0418
   1013 C2         -9.5790    1.8830   -2.9630 C.2      32   U47       0.4687
   1014 O2         -9.1500    0.9130   -3.5550 O.2      32   U47      -0.5477
   1015 N3        -10.0930    2.9620   -3.6480 N.am     32   U47      -0.3549
   1016 C4        -10.6250    4.1160   -3.0990 C.2      32   U47       0.5952
   1017 O4        -11.0520    4.9910   -3.8420 O.2      32   U47      -0.5761
   1018 C5        -10.6200    4.1810   -1.6610 C.2      32   U47      -0.3635
   1019 C6        -10.1190    3.1420   -0.9740 C.2      32   U47      -0.1126
   1020 H5'       -10.2553   -0.3397    3.2367 H        32   U47       0.0679
   1021 H5''      -11.5729   -0.1258    2.0631 H        32   U47       0.0679
   1022 H4'        -9.6336   -1.3915    1.1622 H        32   U47       0.1174
   1023 H3'        -7.9259    0.4367    2.3328 H        32   U47       0.0615
   1024 H2'        -8.5623    2.2609    0.8830 H        32   U47       0.0972
   1025 H1'        -8.5016    0.2162   -1.3702 H        32   U47       0.1824
   1026 H3        -10.0804    2.9052   -4.6563 H        32   U47       0.3154
   1027 H5        -11.0106    5.0463   -1.1462 H        32   U47       0.1811
   1028 H6        -10.1206    3.1898    0.1049 H        32   U47       0.2188
   1029 HO2'       -6.4057    2.2897    0.4509 H        32   U47       0.4186
   1030 P          -6.4910   -1.7960    1.8170 P.3      33   U48       1.1662
   1031 OP1        -5.7670   -2.7580    0.9620 O.co2    33   U48      -0.7760
   1032 OP2        -7.3540   -2.2650    2.9240 O.co2    33   U48      -0.7760
   1033 O5'        -5.4500   -0.7460    2.4290 O.3      33   U48      -0.4989
   1034 C5'        -4.5490   -0.1000    1.5780 C.3      33   U48       0.0558
   1035 C4'        -3.8350    0.9630    2.3750 C.3      33   U48       0.1065
   1036 O4'        -3.0020    0.3170    3.3690 O.3      33   U48      -0.3548
   1037 C3'        -2.9180    1.8400    1.5350 C.3      33   U48       0.2022
   1038 O3'        -3.1080    3.2120    1.8660 O.3      33   U48      -0.5246
   1039 C2'        -1.5200    1.3500    1.8920 C.3      33   U48       0.0670
   1040 O2'        -0.5480    2.3690    1.8310 O.3      33   U48      -0.6139
   1041 C1'        -1.7340    0.9320    3.3370 C.3      33   U48       0.0674
   1042 N1         -0.7200   -0.0490    3.7880 N.am     33   U48       0.0418
   1043 C2          0.1570    0.3160    4.8010 C.2      33   U48       0.4687
   1044 O2          0.1530    1.4040    5.3520 O.2      33   U48      -0.5477
   1045 N3          1.0590   -0.6570    5.1490 N.am     33   U48      -0.3549
   1046 C4          1.1680   -1.9220    4.5920 C.2      33   U48       0.5952
   1047 O4          2.0320   -2.6810    5.0140 O.2      33   U48      -0.5761
   1048 C5          0.2140   -2.2350    3.5490 C.2      33   U48      -0.3635
   1049 C6         -0.6770   -1.3000    3.1940 C.2      33   U48      -0.1126
   1050 H5'        -5.0876    0.3588    0.7489 H        33   U48       0.0679
   1051 H5''       -3.8259   -0.8193    1.1936 H        33   U48       0.0679
   1052 H4'        -4.5714    1.5907    2.8768 H        33   U48       0.1174
   1053 H3'        -3.1127    1.6792    0.4746 H        33   U48       0.0615
   1054 H2'        -1.2339    0.4978    1.2756 H        33   U48       0.0972
   1055 H1'        -1.7246    1.8073    3.9865 H        33   U48       0.1824
   1056 H3          1.7103   -0.4286    5.8864 H        33   U48       0.3154
   1057 H5          0.2206   -3.2017    3.0675 H        33   U48       0.1811
   1058 H6         -1.3890   -1.5300    2.4151 H        33   U48       0.2188
   1059 HO2'       -0.4151    2.6308    0.9170 H        33   U48       0.4186
   1060 P          -4.2910    4.0540    1.1830 P.3      34   U49       1.1662
   1061 OP1        -3.9860    5.4930    1.3650 O.co2    34   U49      -0.7760
   1062 OP2        -5.5710    3.5020    1.6960 O.co2    34   U49      -0.7760
   1063 O5'        -4.2240    3.6850   -0.3670 O.3      34   U49      -0.4989
   1064 C5'        -3.2310    4.2230   -1.2410 C.3      34   U49       0.0558
   1065 C4'        -3.6490    3.9590   -2.6740 C.3      34   U49       0.1065
   1066 O4'        -3.5300    2.5470   -2.9700 O.3      34   U49      -0.3548
   1067 C3'        -5.0970    4.3320   -2.9850 C.3      34   U49       0.2022
   1068 O3'        -5.1230    5.0880   -4.1760 O.3      34   U49      -0.5246
   1069 C2'        -5.7980    2.9890   -3.1570 C.3      34   U49       0.0670
   1070 O2'        -6.8830    3.0270   -4.0700 O.3      34   U49      -0.6139
   1071 C1'        -4.6560    2.1600   -3.7220 C.3      34   U49       0.0674
   1072 N1         -4.8130    0.6810   -3.6040 N.am     34   U49       0.0418
   1073 C2         -4.4640   -0.0900   -4.6890 C.2      34   U49       0.4687
   1074 O2         -4.0480    0.3750   -5.7280 O.2      34   U49      -0.5477
   1075 N3         -4.6470   -1.4380   -4.5220 N.am     34   U49      -0.3549
   1076 C4         -5.1110   -2.0790   -3.3870 C.2      34   U49       0.5952
   1077 O4         -5.2060   -3.3040   -3.3850 O.2      34   U49      -0.5761
   1078 C5         -5.4530   -1.2050   -2.2880 C.2      34   U49      -0.3635
   1079 C6         -5.2940    0.1140   -2.4380 C.2      34   U49      -0.1126
   1080 H5'        -3.1416    5.2969   -1.0772 H        34   U49       0.0679
   1081 H5''       -2.2725    3.7423   -1.0453 H        34   U49       0.0679
   1082 H4'        -2.9908    4.5155   -3.3412 H        34   U49       0.1174
   1083 H3'        -5.5364    4.8942   -2.1611 H        34   U49       0.0615
   1084 H2'        -6.1194    2.5957   -2.1926 H        34   U49       0.0972
   1085 H1'        -4.5004    2.4246   -4.7679 H        34   U49       0.1824
   1086 H3         -4.4190   -2.0257   -5.3111 H        34   U49       0.3154
   1087 H5         -5.8307   -1.6106   -1.3610 H        34   U49       0.1811
   1088 H6         -5.5519    0.7635   -1.6145 H        34   U49       0.2188
   1089 HO2'       -7.2381    3.9181   -4.1088 H        34   U49       0.4186
   1090 P          -6.2480    6.2040   -4.3660 P.3      35   C50       1.1662
   1091 OP1        -5.9660    7.3500   -3.4680 O.co2    35   C50      -0.7760
   1092 OP2        -7.5730    5.5350   -4.3070 O.co2    35   C50      -0.7760
   1093 O5'        -5.9840    6.6330   -5.8760 O.3      35   C50      -0.4989
   1094 C5'        -4.8310    7.3980   -6.2280 C.3      35   C50       0.0558
   1095 C4'        -4.4970    7.1480   -7.6770 C.3      35   C50       0.1065
   1096 O4'        -3.9800    5.8040   -7.8130 O.3      35   C50      -0.3548
   1097 C3'        -5.7060    7.1530   -8.5960 C.3      35   C50       0.2022
   1098 O3'        -6.0470    8.4650   -9.0000 O.3      35   C50      -0.5246
   1099 C2'        -5.2120    6.3100   -9.7600 C.3      35   C50       0.0670
   1100 O2'        -4.3760    7.0240  -10.6500 O.3      35   C50      -0.6139
   1101 C1'        -4.4110    5.2340   -9.0340 C.3      35   C50       0.0066
   1102 N1         -5.1850    3.9790   -8.7560 N.am     35   C50      -0.0484
   1103 C2         -5.6090    3.1660   -9.8250 C.2      35   C50       0.7538
   1104 O2         -5.3470    3.5040  -10.9900 O.2      35   C50      -0.6252
   1105 N3         -6.3080    2.0210   -9.5490 N.2      35   C50      -0.7584
   1106 C4         -6.5750    1.6790   -8.2810 C.2      35   C50       0.8185
   1107 N4         -7.2490    0.5450   -8.0440 N.pl3    35   C50      -0.9530
   1108 C5         -6.1430    2.4840   -7.1820 C.2      35   C50      -0.5215
   1109 C6         -5.4570    3.6100   -7.4650 C.2      35   C50       0.0053
   1110 H5'        -5.0367    8.4579   -6.0785 H        35   C50       0.0679
   1111 H5''       -3.9898    7.0982   -5.6030 H        35   C50       0.0679
   1112 H4'        -3.7588    7.8716   -8.0229 H        35   C50       0.1174
   1113 H3'        -6.5549    6.6715   -8.1107 H        35   C50       0.0615
   1114 H2'        -6.0516    5.8667  -10.2954 H        35   C50       0.0972
   1115 H1'        -3.5359    4.9823   -9.6332 H        35   C50       0.2029
   1116 H5         -6.3581    2.2009   -6.1622 H        35   C50       0.1928
   1117 H6         -5.1138    4.2359   -6.6545 H        35   C50       0.1958
   1118 H41        -7.5523   -0.0327   -8.8149 H        35   C50       0.4234
   1119 H42        -7.4536    0.2682   -7.0945 H        35   C50       0.4234
   1120 HO2'       -4.8897    7.6979  -11.1011 H        35   C50       0.4186
   1121 P          -7.5940    8.8740   -9.0890 P.3      36   U51       1.1662
   1122 OP1        -7.6910   10.2020   -9.7490 O.co2    36   U51      -0.7760
   1123 OP2        -8.1730    8.6760   -7.7380 O.co2    36   U51      -0.7760
   1124 O5'        -8.2000    7.7760  -10.0810 O.3      36   U51      -0.4989
   1125 C5'        -8.1000    7.8990  -11.4930 C.3      36   U51       0.0558
   1126 C4'        -8.6610    6.6570  -12.1590 C.3      36   U51       0.1065
   1127 O4'        -8.0240    5.4730  -11.6060 O.3      36   U51      -0.3548
   1128 C3'       -10.1510    6.4030  -11.9300 C.3      36   U51       0.2022
   1129 O3'       -10.9810    7.1840  -12.7930 O.3      36   U51      -0.5246
   1130 C2'       -10.2310    4.9180  -12.2550 C.3      36   U51       0.0670
   1131 O2'       -10.1550    4.6390  -13.6350 O.3      36   U51      -0.6139
   1132 C1'        -8.9710    4.4120  -11.5640 C.3      36   U51       0.0674
   1133 N1         -9.2150    3.9210  -10.1560 N.am     36   U51       0.0418
   1134 C2         -9.7930    2.6720  -10.0060 C.2      36   U51       0.4687
   1135 O2        -10.1200    1.9870  -10.9540 O.2      36   U51      -0.5477
   1136 N3         -9.9740    2.2620   -8.7050 N.am     36   U51      -0.3549
   1137 C4         -9.6420    2.9780   -7.5640 C.2      36   U51       0.5952
   1138 O4         -9.8580    2.5020   -6.4560 O.2      36   U51      -0.5761
   1139 C5         -9.0340    4.2660   -7.7980 C.2      36   U51      -0.3635
   1140 C6         -8.8470    4.6790   -9.0560 C.2      36   U51      -0.1126
   1141 H5'        -8.6650    8.7716  -11.8208 H        36   U51       0.0679
   1142 H5''       -7.0534    8.0189  -11.7730 H        36   U51       0.0679
   1143 H4'        -8.4647    6.7037  -13.2302 H        36   U51       0.1174
   1144 H3'       -10.4123    6.5798  -10.8867 H        36   U51       0.0615
   1145 H2'       -11.1226    4.4706  -11.8157 H        36   U51       0.0972
   1146 H1'        -8.5749    3.5814  -12.1482 H        36   U51       0.1824
   1147 H3        -10.3888    1.3515   -8.5674 H        36   U51       0.3154
   1148 H5         -8.7340    4.8882   -6.9678 H        36   U51       0.1811
   1149 H6         -8.3901    5.6435   -9.2216 H        36   U51       0.2188
   1150 HO2'      -10.9875    4.2648  -13.9326 H        36   U51       0.4186
   1151 P         -12.4850    7.5710  -12.3870 P.3      37   A52       1.1662
   1152 OP1       -13.0080    8.4230  -13.4750 O.co2    37   A52      -0.7760
   1153 OP2       -12.5770    8.0230  -10.9780 O.co2    37   A52      -0.7760
   1154 O5'       -13.2400    6.1540  -12.4840 O.3      37   A52      -0.4989
   1155 C5'       -13.3690    5.4690  -13.7250 C.3      37   A52       0.0558
   1156 C4'       -13.9750    4.1000  -13.4780 C.3      37   A52       0.1065
   1157 O4'       -13.1150    3.3440  -12.5870 O.3      37   A52      -0.3548
   1158 C3'       -15.3190    4.1620  -12.7770 C.3      37   A52       0.2022
   1159 O3'       -16.3290    4.2520  -13.7750 O.3      37   A52      -0.5246
   1160 C2'       -15.3530    2.8370  -12.0120 C.3      37   A52       0.0670
   1161 O2'       -15.7980    1.7640  -12.8220 O.3      37   A52      -0.6139
   1162 C1'       -13.8850    2.6320  -11.6320 C.3      37   A52       0.0394
   1163 N9        -13.5370    3.0950  -10.2800 N.ar     37   A52      -0.0251
   1164 C8        -13.0000    4.3060   -9.9190 C.ar     37   A52       0.2006
   1165 N7        -12.7990    4.4500   -8.6290 N.ar     37   A52      -0.6073
   1166 C5        -13.2250    3.2460   -8.0990 C.ar     37   A52       0.0515
   1167 C6        -13.2670    2.7470   -6.7770 C.ar     37   A52       0.7009
   1168 N6        -12.8690    3.4330   -5.6970 N.pl3    37   A52      -0.9019
   1169 N1        -13.7570    1.4970   -6.6050 N.ar     37   A52      -0.7615
   1170 C2        -14.1700    0.7960   -7.6710 C.ar     37   A52       0.5875
   1171 N3        -14.1790    1.1550   -8.9520 N.ar     37   A52      -0.6997
   1172 C4        -13.6840    2.3990   -9.1010 C.ar     37   A52       0.3053
   1173 H5'       -14.0166    6.0396  -14.3907 H        37   A52       0.0679
   1174 H5''      -12.3861    5.3552  -14.1822 H        37   A52       0.0679
   1175 H4'       -14.0794    3.5693  -14.4243 H        37   A52       0.1174
   1176 H3'       -15.3661    5.0102  -12.0941 H        37   A52       0.0615
   1177 H2'       -15.9716    2.9255  -11.1189 H        37   A52       0.0972
   1178 H1'       -13.6475    1.5711  -11.7110 H        37   A52       0.2007
   1179 H8        -12.7623    5.0770  -10.6369 H        37   A52       0.1553
   1180 H2        -14.5464   -0.1943   -7.4611 H        37   A52       0.0473
   1181 HO2'      -16.7268    1.5947  -12.6478 H        37   A52       0.4186
   1182 H61       -12.9805    2.9136   -4.8380 H        37   A52       0.4115
   1183 H62       -12.4966    4.3710   -5.7377 H        37   A52       0.4115
   1184 P         -17.6010    5.1790  -13.5580 P.3      38   C53       1.1662
   1185 OP1       -18.3080    5.0830  -14.8610 O.co2    38   C53      -0.7760
   1186 OP2       -17.2140    6.4800  -12.9660 O.co2    38   C53      -0.7760
   1187 O5'       -18.4670    4.4640  -12.4310 O.3      38   C53      -0.4989
   1188 C5'       -19.0240    3.1910  -12.6910 C.3      38   C53       0.0558
   1189 C4'       -19.4430    2.5670  -11.3730 C.3      38   C53       0.1065
   1190 O4'       -18.2430    2.3110  -10.6010 O.3      38   C53      -0.3548
   1191 C3'       -20.3110    3.4340  -10.4620 C.3      38   C53       0.2022
   1192 O3'       -21.6860    3.3520  -10.8130 O.3      38   C53      -0.5246
   1193 C2'       -20.0370    2.8180   -9.0920 C.3      38   C53       0.0670
   1194 O2'       -20.7920    1.6420   -8.8430 O.3      38   C53      -0.6139
   1195 C1'       -18.5530    2.4690   -9.2260 C.3      38   C53       0.0066
   1196 N1        -17.6320    3.5030   -8.6320 N.am     38   C53      -0.0484
   1197 C2        -17.0210    3.2550   -7.3890 C.2      38   C53       0.7538
   1198 O2        -17.2530    2.1940   -6.7940 O.2      38   C53      -0.6252
   1199 N3        -16.1930    4.2030   -6.8780 N.2      38   C53      -0.7584
   1200 C4        -15.9620    5.3410   -7.5470 C.2      38   C53       0.8185
   1201 N4        -15.1450    6.2520   -7.0100 N.pl3    38   C53      -0.9530
   1202 C5        -16.5670    5.6110   -8.8120 C.2      38   C53      -0.5215
   1203 C6        -17.3770    4.6700   -9.3130 C.2      38   C53       0.0053
   1204 H5'       -19.8934    3.2964  -13.3399 H        38   C53       0.0679
   1205 H5''      -18.2804    2.5582  -13.1754 H        38   C53       0.0679
   1206 H4'       -19.9544    1.6242  -11.5672 H        38   C53       0.1174
   1207 H3'       -19.9730    4.4699  -10.4878 H        38   C53       0.0615
   1208 H2'       -20.1916    3.5514   -8.3006 H        38   C53       0.0972
   1209 H1'       -18.3756    1.5192   -8.7215 H        38   C53       0.2029
   1210 H5        -16.3795    6.5336   -9.3413 H        38   C53       0.1928
   1211 H6        -17.8411    4.8314  -10.2748 H        38   C53       0.1958
   1212 H41       -14.7113    6.0762   -6.1149 H        38   C53       0.4234
   1213 H42       -14.9612    7.1163   -7.4992 H        38   C53       0.4234
   1214 HO2'      -20.3121    0.8778   -9.1704 H        38   C53       0.4186
   1215 P         -22.4980    4.5470  -11.5240 P.3      39   C54       1.1662
   1216 OP1       -21.5710    5.6260  -11.9700 O.co2    39   C54      -0.7760
   1217 OP2       -23.5530    4.9260  -10.5670 O.co2    39   C54      -0.7760
   1218 O5'       -23.2230    3.7440  -12.7150 O.3      39   C54      -0.4989
   1219 C5'       -22.8970    3.8020  -14.0620 C.3      39   C54       0.0558
   1220 C4'       -22.6020    2.4380  -14.6750 C.3      39   C54       0.1065
   1221 O4'       -21.8870    1.6010  -13.7370 O.3      39   C54      -0.3548
   1222 C3'       -23.7410    1.4990  -15.1030 C.3      39   C54       0.2022
   1223 O3'       -24.4130    1.9490  -16.2910 O.3      39   C54      -0.5246
   1224 C2'       -22.8680    0.3140  -15.4550 C.3      39   C54       0.0670
   1225 O2'       -22.1350    0.5210  -16.6510 O.3      39   C54      -0.6139
   1226 C1'       -21.8990    0.2920  -14.2740 C.3      39   C54       0.0066
   1227 N1        -22.2830   -0.7170  -13.2250 N.am     39   C54      -0.0484
   1228 C2        -22.1840   -2.0700  -13.5650 C.2      39   C54       0.7538
   1229 O2        -21.8140   -2.3900  -14.6890 O.2      39   C54      -0.6252
   1230 N3        -22.5160   -2.9980  -12.6280 N.2      39   C54      -0.7584
   1231 C4        -22.9230   -2.6150  -11.4220 C.2      39   C54       0.8185
   1232 N4        -23.2350   -3.5770  -10.5530 N.pl3    39   C54      -0.9530
   1233 C5        -23.0270   -1.2300  -11.0460 C.2      39   C54      -0.5215
   1234 C6        -22.6960   -0.3340  -11.9870 C.2      39   C54       0.0053
   1235 H5'       -22.0134    4.4300  -14.1764 H        39   C54       0.0679
   1236 H5''      -23.7249    4.2589  -14.6042 H        39   C54       0.0679
   1237 H4'       -21.9572    2.5944  -15.5398 H        39   C54       0.1174
   1238 H3'       -24.4321    1.2818  -14.2886 H        39   C54       0.0615
   1239 H2'       -23.4515   -0.6054  -15.5039 H        39   C54       0.0972
   1240 H1'       -20.9011    0.0539  -14.6423 H        39   C54       0.2029
   1241 H5        -23.3533   -0.9291  -10.0614 H        39   C54       0.1928
   1242 H6        -22.7590    0.7191  -11.7559 H        39   C54       0.1958
   1243 H41       -23.1582   -4.5469  -10.8242 H        39   C54       0.4234
   1244 H42       -23.5482   -3.3358   -9.6236 H        39   C54       0.4234
   1245 HO2'      -22.7380    0.5360  -17.3979 H        39   C54       0.4186
   1246 P         -25.8330    1.3630  -16.7720 P.3      40   G55       1.1662
   1247 OP1       -26.3070    2.2780  -17.8470 O.co2    40   G55      -0.7760
   1248 OP2       -26.6760    1.1540  -15.5880 O.co2    40   G55      -0.7760
   1249 O5'       -25.5230   -0.0480  -17.4480 O.3      40   G55      -0.4989
   1250 C5'       -25.0240   -0.1350  -18.7810 C.3      40   G55       0.0558
   1251 C4'       -25.0260   -1.5730  -19.2550 C.3      40   G55       0.1065
   1252 O4'       -24.2140   -2.3580  -18.3380 O.3      40   G55      -0.3548
   1253 C3'       -26.3660   -2.2930  -19.2260 C.3      40   G55       0.2022
   1254 O3'       -27.1370   -2.0550  -20.3820 O.3      40   G55      -0.5246
   1255 C2'       -25.9280   -3.7400  -19.2080 C.3      40   G55       0.0670
   1256 O2'       -25.4170   -4.1750  -20.4480 O.3      40   G55      -0.6139
   1257 C1'       -24.7770   -3.6560  -18.2160 C.3      40   G55       0.0191
   1258 N9        -25.0720   -3.8520  -16.7920 N.ar     40   G55       0.0492
   1259 C8        -25.2280   -2.8940  -15.8180 C.ar     40   G55       0.1374
   1260 N7        -25.4510   -3.3630  -14.6230 N.ar     40   G55      -0.5709
   1261 C5        -25.4310   -4.7400  -14.8150 C.ar     40   G55       0.1744
   1262 C6        -25.6010   -5.7940  -13.8830 C.2      40   G55       0.4770
   1263 O6        -25.7990   -5.7010  -12.6660 O.2      40   G55      -0.5597
   1264 N1        -25.5070   -7.0420  -14.4930 N.am     40   G55      -0.4787
   1265 C2        -25.2770   -7.2600  -15.8320 C.2      40   G55       0.7657
   1266 N2        -25.2140   -8.5270  -16.2530 N.pl3    40   G55      -0.9672
   1267 N3        -25.1140   -6.2700  -16.7190 N.2      40   G55      -0.6323
   1268 C4        -25.1980   -5.0620  -16.1360 C.ar     40   G55       0.1222
   1269 H5'       -24.0047    0.2501  -18.8082 H        40   G55       0.0679
   1270 H5''      -25.6528    0.4628  -19.4409 H        40   G55       0.0679
   1271 H4'       -24.6025   -1.6283  -20.2578 H        40   G55       0.1174
   1272 H3'       -26.9252   -2.0424  -18.3245 H        40   G55       0.0615
   1273 H2'       -26.7213   -4.3953  -18.8483 H        40   G55       0.0972
   1274 H1'       -24.0207   -4.3838  -18.5100 H        40   G55       0.2006
   1275 H8        -25.1702   -1.8360  -16.0271 H        40   G55       0.1640
   1276 H1        -25.6168   -7.8549  -13.9037 H        40   G55       0.3424
   1277 H21       -25.3343   -9.2842  -15.5955 H        40   G55       0.4364
   1278 H22       -25.0461   -8.7272  -17.2286 H        40   G55       0.4364
   1279 HO2'      -26.0569   -4.7497  -20.8745 H        40   G55       0.4186
   1280 P         -28.7050   -1.9340  -20.1850 P.3      41   G56       1.1662
   1281 OP1       -29.1880   -1.1980  -21.3960 O.co2    41   G56      -0.7760
   1282 OP2       -29.0860   -1.4850  -18.8590 O.co2    41   G56      -0.7760
   1283 O5'       -29.1590   -3.4700  -20.1450 O.3      41   G56      -0.4989
   1284 C5'       -29.3130   -4.2220  -21.3250 C.3      41   G56       0.0558
   1285 C4'       -29.3750   -5.6890  -20.9470 C.3      41   G56       0.1065
   1286 O4'       -28.2690   -6.0200  -20.0960 O.3      41   G56      -0.3548
   1287 C3'       -30.5700   -6.1390  -20.1100 C.3      41   G56       0.2022
   1288 O3'       -31.7200   -6.3060  -20.9180 O.3      41   G56      -0.5246
   1289 C2'       -30.0290   -7.4700  -19.6370 C.3      41   G56       0.0670
   1290 O2'       -29.9250   -8.3940  -20.7060 O.3      41   G56      -0.6139
   1291 C1'       -28.6520   -7.0250  -19.1770 C.3      41   G56       0.0191
   1292 N9        -28.7130   -6.4690  -17.8290 N.ar     41   G56       0.0492
   1293 C8        -28.7990   -5.1320  -17.4630 C.ar     41   G56       0.1374
   1294 N7        -28.8490   -4.9550  -16.1660 N.ar     41   G56      -0.5709
   1295 C5        -28.7960   -6.2470  -15.6540 C.ar     41   G56       0.1744
   1296 C6        -28.8330   -6.6850  -14.3100 C.2      41   G56       0.4770
   1297 O6        -28.8990   -5.9950  -13.2760 O.2      41   G56      -0.5597
   1298 N1        -28.7600   -8.0830  -14.2030 N.am     41   G56      -0.4787
   1299 C2        -28.6840   -8.9500  -15.2800 C.2      41   G56       0.7657
   1300 N2        -28.6500  -10.2740  -14.9990 N.pl3    41   G56      -0.9672
   1301 N3        -28.6750   -8.5470  -16.5440 N.2      41   G56      -0.6323
   1302 C4        -28.7300   -7.1830  -16.6600 C.ar     41   G56       0.1222
   1303 H5'       -30.2345   -3.9319  -21.8297 H        41   G56       0.0679
   1304 H5''      -28.4628   -4.0484  -21.9846 H        41   G56       0.0679
   1305 H4'       -29.3238   -6.2942  -21.8521 H        41   G56       0.1174
   1306 H3'       -30.7573   -5.4610  -19.2773 H        41   G56       0.0615
   1307 H2'       -30.6174   -7.8732  -18.8128 H        41   G56       0.0972
   1308 H1'       -27.9515   -7.8593  -19.2126 H        41   G56       0.2006
   1309 H8        -28.8223   -4.3206  -18.1754 H        41   G56       0.1640
   1310 H1        -28.7631   -8.4842  -13.2761 H        41   G56       0.3424
   1311 H21       -28.6683  -10.5872  -14.0390 H        41   G56       0.4364
   1312 H22       -28.6063  -10.9485  -15.7495 H        41   G56       0.4364
   1313 HO2'      -30.1622   -9.2710  -20.3958 H        41   G56       0.4186
   1314 P         -33.1670   -6.4060  -20.2960 P.3      42   G57       1.1662
   1315 OP1       -34.1320   -6.3890  -21.4140 O.co2    42   G57      -0.7760
   1316 OP2       -33.3190   -5.4040  -19.2010 O.co2    42   G57      -0.7760
   1317 O5'       -33.2220   -7.8100  -19.5570 O.3      42   G57      -0.4989
   1318 C5'       -33.2140   -9.0140  -20.3140 C.3      42   G57       0.0558
   1319 C4'       -33.1490  -10.1880  -19.3570 C.3      42   G57       0.1065
   1320 O4'       -31.9720  -10.0860  -18.5050 O.3      42   G57      -0.3548
   1321 C3'       -34.2850  -10.2980  -18.3600 C.3      42   G57       0.2022
   1322 O3'       -35.4490  -10.8880  -18.9320 O.3      42   G57      -0.5246
   1323 C2'       -33.6870  -11.2250  -17.3210 C.3      42   G57       0.0670
   1324 O2'       -33.6260  -12.5840  -17.7510 O.3      42   G57      -0.6139
   1325 C1'       -32.3000  -10.6100  -17.2270 C.3      42   G57       0.0191
   1326 N9        -32.2070   -9.5210  -16.2430 N.ar     42   G57       0.0492
   1327 C8        -32.0900   -8.1790  -16.4890 C.ar     42   G57       0.1374
   1328 N7        -32.0140   -7.4470  -15.3950 N.ar     42   G57      -0.5709
   1329 C5        -32.0940   -8.3840  -14.3730 C.ar     42   G57       0.1744
   1330 C6        -32.0320   -8.2030  -12.9640 C.2      42   G57       0.4770
   1331 O6        -31.9150   -7.1110  -12.3640 O.2      42   G57      -0.5597
   1332 N1        -32.1480   -9.4020  -12.2650 N.am     42   G57      -0.4787
   1333 C2        -32.2710  -10.6410  -12.8640 C.2      42   G57       0.7657
   1334 N2        -32.3510  -11.7120  -12.0550 N.pl3    42   G57      -0.9672
   1335 N3        -32.2870  -10.8160  -14.1820 N.2      42   G57      -0.6323
   1336 C4        -32.1940   -9.6640  -14.8730 C.ar     42   G57       0.1222
   1337 H5'       -34.1234   -9.0777  -20.9116 H        42   G57       0.0679
   1338 H5''      -32.3435   -9.0280  -20.9699 H        42   G57       0.0679
   1339 H4'       -33.0914  -11.1119  -19.9324 H        42   G57       0.1174
   1340 H3'       -34.5161   -9.3254  -17.9256 H        42   G57       0.0615
   1341 H2'       -34.2163  -11.1399  -16.3719 H        42   G57       0.0972
   1342 H1'       -31.5824  -11.3879  -16.9662 H        42   G57       0.2006
   1343 H8        -32.0626   -7.7602  -17.4841 H        42   G57       0.1640
   1344 H1        -32.1418   -9.3633  -11.2558 H        42   G57       0.3424
   1345 H21       -32.3300  -11.5904  -11.0526 H        42   G57       0.4364
   1346 H22       -32.4321  -12.6381  -12.4498 H        42   G57       0.4364
   1347 HO2'      -34.5143  -12.9445  -17.8008 H        42   G57       0.4186
   1348 P         -36.9130  -10.3900  -18.5780 P.3      43   C58       1.1662
   1349 OP1       -37.8870  -11.1750  -19.3880 O.co2    43   C58      -0.7760
   1350 OP2       -36.9430   -8.9160  -18.6270 O.co2    43   C58      -0.7760
   1351 O5'       -37.0510  -10.8020  -17.0440 O.3      43   C58      -0.4989
   1352 C5'       -37.2640  -12.1580  -16.6470 C.3      43   C58       0.0558
   1353 C4'       -37.0730  -12.2990  -15.1460 C.3      43   C58       0.1065
   1354 O4'       -35.7590  -11.8270  -14.7310 O.3      43   C58      -0.3548
   1355 C3'       -38.0320  -11.4840  -14.2970 C.3      43   C58       0.2022
   1356 O3'       -39.3060  -12.0780  -14.2420 O.3      43   C58      -0.5246
   1357 C2'       -37.2960  -11.5560  -12.9690 C.3      43   C58       0.0670
   1358 O2'       -37.3340  -12.8300  -12.3530 O.3      43   C58      -0.6139
   1359 C1'       -35.8860  -11.2520  -13.4310 C.3      43   C58       0.0066
   1360 N1        -35.6260   -9.7890  -13.5190 N.am     43   C58      -0.0484
   1361 C2        -35.3680   -9.1230  -12.3190 C.2      43   C58       0.7538
   1362 O2        -35.4030   -9.8000  -11.2880 O.2      43   C58      -0.6252
   1363 N3        -35.1450   -7.7860  -12.3780 N.2      43   C58      -0.7584
   1364 C4        -35.1540   -7.1120  -13.5360 C.2      43   C58       0.8185
   1365 N4        -34.8940   -5.7890  -13.5340 N.pl3    43   C58      -0.9530
   1366 C5        -35.4180   -7.7780  -14.7800 C.2      43   C58      -0.5215
   1367 C6        -35.6430   -9.1040  -14.7130 C.2      43   C58       0.0053
   1368 H5'       -36.5508  -12.8008  -17.1630 H        43   C58       0.0679
   1369 H5''      -38.2780  -12.4573  -16.9121 H        43   C58       0.0679
   1370 H4'       -37.1706  -13.3505  -14.8761 H        43   C58       0.1174
   1371 H3'       -38.0945  -10.4562  -14.6545 H        43   C58       0.0615
   1372 H2'       -37.6539  -10.7854  -12.2862 H        43   C58       0.0972
   1373 H1'       -35.1685  -11.7134  -12.7525 H        43   C58       0.2029
   1374 H5        -35.4352   -7.2445  -15.7188 H        43   C58       0.1928
   1375 H6        -35.8431   -9.6472  -15.6247 H        43   C58       0.1958
   1376 H41       -34.7010   -5.3136  -12.6640 H        43   C58       0.4234
   1377 H42       -34.8923   -5.2734  -14.4025 H        43   C58       0.4234
   1378 HO2'      -38.2291  -13.0186  -12.0618 H        43   C58       0.4186
   1379 P         -40.6240  -11.2020  -14.0870 P.3      44   A59       1.1662
   1380 OP1       -41.7710  -12.1220  -14.2820 O.co2    44   A59      -0.7760
   1381 OP2       -40.5420   -9.9640  -14.8690 O.co2    44   A59      -0.7760
   1382 O5'       -40.5810  -10.7570  -12.5470 O.3      44   A59      -0.4989
   1383 C5'       -40.6650  -11.7290  -11.5000 C.3      44   A59       0.0558
   1384 C4'       -40.2770  -11.1280  -10.1610 C.3      44   A59       0.1065
   1385 O4'       -38.9520  -10.5320  -10.2650 O.3      44   A59      -0.3548
   1386 C3'       -41.1790  -10.0110   -9.6420 C.3      44   A59       0.2022
   1387 O3'       -42.2470  -10.5460   -8.8580 O.3      44   A59      -0.5246
   1388 C2'       -40.2530   -9.2450   -8.7180 C.3      44   A59       0.0670
   1389 O2'       -40.0870   -9.8620   -7.4390 O.3      44   A59      -0.6139
   1390 C1'       -38.9660   -9.3150   -9.5140 C.3      44   A59       0.0394
   1391 N9        -38.7280   -8.1790  -10.4200 N.ar     44   A59      -0.0251
   1392 C8        -38.6990   -8.1690  -11.7940 C.ar     44   A59       0.2006
   1393 N7        -38.4030   -6.9920  -12.3200 N.ar     44   A59      -0.6073
   1394 C5        -38.2220   -6.1870  -11.2080 C.ar     44   A59       0.0515
   1395 C6        -37.8620   -4.8390  -11.0760 C.ar     44   A59       0.7009
   1396 N6        -37.6310   -4.0170  -12.1050 N.pl3    44   A59      -0.9019
   1397 N1        -37.7430   -4.3560   -9.8240 N.ar     44   A59      -0.7615
   1398 C2        -37.9550   -5.1610   -8.7770 C.ar     44   A59       0.5875
   1399 N3        -38.2840   -6.4540   -8.7780 N.ar     44   A59      -0.6997
   1400 C4        -38.3940   -6.9090  -10.0370 C.ar     44   A59       0.3053
   1401 H5'       -41.6883  -12.0995  -11.4402 H        44   A59       0.0679
   1402 H5''      -39.9962  -12.5591  -11.7274 H        44   A59       0.0679
   1403 H4'       -40.2442  -11.9242   -9.4173 H        44   A59       0.1174
   1404 H3'       -41.5494   -9.3830  -10.4523 H        44   A59       0.0615
   1405 H2'       -40.5840   -8.2122   -8.6087 H        44   A59       0.0972
   1406 H1'       -38.1389   -9.3530   -8.8050 H        44   A59       0.2007
   1407 H8        -38.9003   -9.0455  -12.3920 H        44   A59       0.1553
   1408 H2        -37.8456   -4.7049   -7.8041 H        44   A59       0.0473
   1409 H61       -37.1963   -3.1869  -11.7281 H        44   A59       0.4115
   1410 H62       -37.8497   -4.1929  -13.0752 H        44   A59       0.4115
   1411 HO2'      -39.3950   -9.4081   -6.9524 H        44   A59       0.4186
   1412 P         -43.6810   -9.8620   -8.8460 P.3      45   C60       1.1662
   1413 OP1       -44.4960  -10.7270   -7.9440 O.co2    45   C60      -0.7760
   1414 OP2       -44.1600   -9.5610  -10.1920 O.co2    45   C60      -0.7760
   1415 O5'       -43.4490   -8.4400   -8.1210 O.3      45   C60      -0.4989
   1416 C5'       -43.0840   -8.3070   -6.7360 C.3      45   C60       0.0558
   1417 C4'       -42.6970   -6.8660   -6.4890 C.3      45   C60       0.1065
   1418 O4'       -41.5160   -6.5690   -7.2820 O.3      45   C60      -0.3548
   1419 C3'       -43.6940   -5.8440   -6.9910 C.3      45   C60       0.2022
   1420 O3'       -44.7530   -5.6630   -6.0760 O.3      45   C60      -0.5246
   1421 C2'       -42.8280   -4.5920   -7.1110 C.3      45   C60       0.0670
   1422 O2'       -42.4620   -4.0380   -5.8670 O.3      45   C60      -0.6139
   1423 C1'       -41.6150   -5.2240   -7.7540 C.3      45   C60       0.0066
   1424 N1        -41.5580   -5.1980   -9.2520 N.am     45   C60      -0.0484
   1425 C2        -41.1730   -4.0220   -9.9100 C.2      45   C60       0.7538
   1426 O2        -40.9340   -3.0070   -9.2400 O.2      45   C60      -0.6252
   1427 N3        -41.0840   -4.0160  -11.2570 N.2      45   C60      -0.7584
   1428 C4        -41.3850   -5.1170  -11.9640 C.2      45   C60       0.8185
   1429 N4        -41.2700   -5.0530  -13.2970 N.pl3    45   C60      -0.9530
   1430 C5        -41.7770   -6.3300  -11.3210 C.2      45   C60      -0.5215
   1431 C6        -41.8500   -6.3330   -9.9870 C.2      45   C60       0.0053
   1432 H5'       -43.9300   -8.5759   -6.1035 H        45   C60       0.0679
   1433 H5''      -42.2381   -8.9579   -6.5147 H        45   C60       0.0679
   1434 H4'       -42.4918   -6.7058   -5.4306 H        45   C60       0.1174
   1435 H3'       -44.0798   -6.1357   -7.9678 H        45   C60       0.0615
   1436 H2'       -43.2860   -3.8480   -7.7627 H        45   C60       0.0972
   1437 H1'       -40.7393   -4.6880   -7.3881 H        45   C60       0.2029
   1438 H5        -42.0070   -7.2160  -11.8942 H        45   C60       0.1928
   1439 H6        -42.1420   -7.2372   -9.4736 H        45   C60       0.1958
   1440 H41       -40.9787   -4.1924  -13.7380 H        45   C60       0.4234
   1441 H42       -41.4746   -5.8654  -13.8611 H        45   C60       0.4234
   1442 HO2'      -42.8851   -3.1829   -5.7601 H        45   C60       0.4186
   1443 P         -46.1840   -5.1900   -6.5770 P.3      46   C61       1.1662
   1444 OP1       -47.0880   -5.5150   -5.4380 O.co2    46   C61      -0.7760
   1445 OP2       -46.4940   -5.6890   -7.9460 O.co2    46   C61      -0.7760
   1446 O5'       -46.0320   -3.5990   -6.7160 O.3      46   C61      -0.4989
   1447 C5'       -45.5800   -2.7850   -5.6240 C.3      46   C61       0.0558
   1448 C4'       -45.1710   -1.4060   -6.1230 C.3      46   C61       0.1065
   1449 O4'       -44.0780   -1.5330   -7.0700 O.3      46   C61      -0.3548
   1450 C3'       -46.2270   -0.6680   -6.9220 C.3      46   C61       0.2022
   1451 O3'       -47.1050    0.0200   -6.0590 O.3      46   C61      -0.5246
   1452 C2'       -45.3930    0.3330   -7.7190 C.3      46   C61       0.0670
   1453 O2'       -44.8940    1.3810   -6.8900 O.3      46   C61      -0.6139
   1454 C1'       -44.2190   -0.5540   -8.0840 C.3      46   C61       0.0066
   1455 N1        -44.2140   -1.2710   -9.3990 N.am     46   C61      -0.0484
   1456 C2        -43.7120   -0.5950  -10.5070 C.2      46   C61       0.7538
   1457 O2        -43.3540    0.5840  -10.3960 O.2      46   C61      -0.6252
   1458 N3        -43.6330   -1.2720  -11.6760 N.2      46   C61      -0.7584
   1459 C4        -44.0300   -2.5430  -11.7450 C.2      46   C61       0.8185
   1460 N4        -43.9360   -3.1410  -12.9400 N.pl3    46   C61      -0.9530
   1461 C5        -44.5350   -3.2570  -10.6200 C.2      46   C61      -0.5215
   1462 C6        -44.5920   -2.5840   -9.4650 C.2      46   C61       0.0053
   1463 H5'       -44.7232   -3.2639   -5.1500 H        46   C61       0.0679
   1464 H5''      -46.3837   -2.6809   -4.8951 H        46   C61       0.0679
   1465 H4'       -44.8547   -0.7914   -5.2802 H        46   C61       0.1174
   1466 H3'       -46.7698   -1.3452   -7.5815 H        46   C61       0.0615
   1467 H2'       -45.9195    0.7098   -8.5959 H        46   C61       0.0972
   1468 H1'       -43.3251    0.0690   -8.0549 H        46   C61       0.2029
   1469 H5        -44.8545   -4.2859  -10.6956 H        46   C61       0.1928
   1470 H6        -44.9409   -3.0838   -8.5734 H        46   C61       0.1958
   1471 H41       -43.5775   -2.6296  -13.7338 H        46   C61       0.4234
   1472 H42       -44.2236   -4.1032  -13.0472 H        46   C61       0.4234
   1473 HO2'      -44.0702    1.7130   -7.2543 H        46   C61       0.4186
   1474 P         -48.6700   -0.3010   -6.1150 P.3      47   G62       1.1662
   1475 OP1       -49.2290    0.2500   -4.8520 O.co2    47   G62      -0.7760
   1476 OP2       -48.8810   -1.7190   -6.4560 O.co2    47   G62      -0.7760
   1477 O5'       -49.1980    0.5780   -7.3150 O.3      47   G62      -0.4989
   1478 C5'       -50.5980    0.7540   -7.4300 C.3      47   G62       0.0558
   1479 C4'       -50.9410    1.3290   -8.7860 C.3      47   G62       0.1065
   1480 O4'       -50.7270    0.3160   -9.7970 O.3      47   G62      -0.3548
   1481 C3'       -52.3900    1.7470   -8.9540 C.3      47   G62       0.2022
   1482 O3'       -52.3770    2.8360   -9.8430 O.3      47   G62      -0.5246
   1483 C2'       -53.0460    0.5120   -9.5690 C.3      47   G62       0.0670
   1484 O2'       -54.2160    0.8150  -10.3010 O.3      47   G62      -0.6139
   1485 C1'       -51.9250    0.0480  -10.4970 C.3      47   G62       0.0191
   1486 N9        -51.8890   -1.3750  -10.8370 N.ar     47   G62       0.0492
   1487 C8        -52.2960   -2.4550  -10.0780 C.ar     47   G62       0.1374
   1488 N7        -52.1160   -3.6070  -10.6680 N.ar     47   G62      -0.5709
   1489 C5        -51.5510   -3.2690  -11.8940 C.ar     47   G62       0.1744
   1490 C6        -51.1380   -4.0920  -12.9690 C.2      47   G62       0.4770
   1491 O6        -51.1910   -5.3310  -13.0530 O.2      47   G62      -0.5597
   1492 N1        -50.6160   -3.3400  -14.0280 N.am     47   G62      -0.4787
   1493 C2        -50.5130   -1.9690  -14.0540 C.2      47   G62       0.7657
   1494 N2        -49.9800   -1.4250  -15.1610 N.pl3    47   G62      -0.9672
   1495 N3        -50.8950   -1.1850  -13.0520 N.2      47   G62      -0.6323
   1496 C4        -51.3990   -1.9030  -12.0090 C.ar     47   G62       0.1222
   1497 H5'       -51.0931   -0.2098   -7.3118 H        47   G62       0.0679
   1498 H5''      -50.9418    1.4348   -6.6513 H        47   G62       0.0679
   1499 H4'       -50.2943    2.1826   -8.9891 H        47   G62       0.1174
   1500 H3'       -52.8457    2.0118   -7.9999 H        47   G62       0.0615
   1501 H2'       -53.2510   -0.2380   -8.8051 H        47   G62       0.0972
   1502 H1'       -51.9475    0.6378  -11.4134 H        47   G62       0.2006
   1503 H8        -52.7225   -2.3566   -9.0907 H        47   G62       0.1640
   1504 H1        -50.2884   -3.8454  -14.8388 H        47   G62       0.3424
   1505 H21       -49.6835   -2.0182  -15.9228 H        47   G62       0.4364
   1506 H22       -49.8758   -0.4229  -15.2313 H        47   G62       0.4364
   1507 HO2'      -54.9053    1.1037   -9.6984 H        47   G62       0.4186
   1508 P         -53.1580    4.1720   -9.4920 P.3      48   U63       1.1662
   1509 OP1       -53.3890    4.2040   -8.0270 O.co2    48   U63      -0.7760
   1510 OP2       -54.2800    4.2390  -10.4570 O.co2    48   U63      -0.7760
   1511 O5'       -52.1480    5.3500   -9.8630 O.3      48   U63      -0.4989
   1512 C5'       -50.9220    5.5720   -9.1460 C.3      48   U63       0.0558
   1513 C4'       -49.9510    6.3810   -9.9970 C.3      48   U63       0.1065
   1514 O4'       -49.1180    5.4780  -10.7810 O.3      48   U63      -0.3548
   1515 C3'       -50.6020    7.3160  -11.0130 C.3      48   U63       0.2022
   1516 O3'       -49.7980    8.4740  -11.1940 O.3      48   U63      -0.5246
   1517 C2'       -50.6440    6.4450  -12.2720 C.3      48   U63       0.0670
   1518 O2'       -50.7770    7.1740  -13.4780 O.3      48   U63      -0.6139
   1519 C1'       -49.2730    5.7770  -12.1580 C.3      48   U63       0.0674
   1520 N1        -49.1730    4.5180  -12.9610 N.am     48   U63       0.0418
   1521 C2        -48.5430    4.5500  -14.1950 C.2      48   U63       0.4687
   1522 O2        -48.0550    5.5500  -14.6820 O.2      48   U63      -0.5477
   1523 N3        -48.5020    3.3510  -14.8560 N.am     48   U63      -0.3549
   1524 C4        -49.0340    2.1460  -14.4240 C.2      48   U63       0.5952
   1525 O4        -48.9390    1.1460  -15.1200 O.2      48   U63      -0.5761
   1526 C5        -49.6710    2.1830  -13.1270 C.2      48   U63      -0.3635
   1527 C6        -49.7160    3.3460  -12.4660 C.2      48   U63      -0.1126
   1528 H5'       -51.1365    6.1185   -8.2276 H        48   U63       0.0679
   1529 H5''      -50.4703    4.6117   -8.8974 H        48   U63       0.0679
   1530 H4'       -49.3107    6.9679   -9.3385 H        48   U63       0.1174
   1531 H3'       -51.6090    7.5894  -10.6977 H        48   U63       0.0615
   1532 H2'       -51.4357    5.7003  -12.1907 H        48   U63       0.0972
   1533 H1'       -48.4971    6.4753  -12.4718 H        48   U63       0.1824
   1534 H3        -48.0354    3.3441  -15.7517 H        48   U63       0.3154
   1535 H5        -50.1022    1.2898  -12.6997 H        48   U63       0.1811
   1536 H6        -50.1992    3.3705  -11.5004 H        48   U63       0.2188
   1537 HO2'      -51.6472    7.5778  -13.5141 H        48   U63       0.4186
   1538 P         -50.2500    9.9000  -10.6040 P.3      49   A64       1.1662
   1539 OP1       -51.6910    9.8000  -10.2810 O.co2    49   A64      -0.7760
   1540 OP2       -49.7330   10.9230  -11.5370 O.co2    49   A64      -0.7760
   1541 O5'       -49.4870   10.0160   -9.2040 O.3      49   A64      -0.4989
   1542 C5'       -48.0840   10.1760   -9.1360 C.3      49   A64       0.0558
   1543 C4'       -47.5820    9.5540   -7.8470 C.3      49   A64       0.1065
   1544 O4'       -47.8270    8.1240   -7.8410 O.3      49   A64      -0.3548
   1545 C3'       -46.0900    9.7260   -7.6340 C.3      49   A64       0.2022
   1546 O3'       -45.8730   10.8830   -6.8230 O.3      49   A64      -0.5246
   1547 C2'       -45.6630    8.4180   -6.9640 C.3      49   A64       0.0670
   1548 O2'       -45.8210    8.4420   -5.5570 O.3      49   A64      -0.6139
   1549 C1'       -46.6430    7.4010   -7.5370 C.3      49   A64       0.0394
   1550 N9        -46.2850    6.7090   -8.7800 N.ar     49   A64      -0.0251
   1551 C8        -45.7160    7.2400   -9.9080 C.ar     49   A64       0.2006
   1552 N7        -45.5560    6.3760  -10.8880 N.ar     49   A64      -0.6073
   1553 C5        -46.0570    5.2000  -10.3680 C.ar     49   A64       0.0515
   1554 C6        -46.1850    3.9100  -10.9110 C.ar     49   A64       0.7009
   1555 N6        -45.7730    3.6050  -12.1510 N.pl3    49   A64      -0.9019
   1556 N1        -46.7340    2.9530  -10.1310 N.ar     49   A64      -0.7615
   1557 C2        -47.1470    3.2600   -8.8870 C.ar     49   A64       0.5875
   1558 N3        -47.0780    4.4470   -8.2790 N.ar     49   A64      -0.6997
   1559 C4        -46.5230    5.3820   -9.0710 C.ar     49   A64       0.3053
   1560 H5'       -47.8354   11.2372   -9.1514 H        49   A64       0.0679
   1561 H5''      -47.6180    9.6793   -9.9870 H        49   A64       0.0679
   1562 H4'       -48.1119   10.0056   -7.0083 H        49   A64       0.1174
   1563 H3'       -45.5843    9.8393   -8.5929 H        49   A64       0.0615
   1564 H2'       -44.6384    8.1620   -7.2337 H        49   A64       0.0972
   1565 H1'       -46.8692    6.6584   -6.7718 H        49   A64       0.2007
   1566 H8        -45.4243    8.2769   -9.9860 H        49   A64       0.1553
   1567 H2        -47.5840    2.4545   -8.3155 H        49   A64       0.0473
   1568 HO2'      -44.9623    8.5425   -5.1398 H        49   A64       0.4186
   1569 H61       -46.1354    2.6821  -12.3435 H        49   A64       0.4115
   1570 H62       -45.2150    4.1802  -12.7657 H        49   A64       0.4115
   1571 P         -44.5990   11.8140   -7.0390 P.3      50   A65       1.1662
   1572 OP1       -44.7920   13.0320   -6.2070 O.co2    50   A65      -0.7760
   1573 OP2       -44.2780   11.9380   -8.4860 O.co2    50   A65      -0.7760
   1574 O5'       -43.4420   10.9880   -6.3300 O.3      50   A65      -0.4989
   1575 C5'       -43.5020   10.6980   -4.9350 C.3      50   A65       0.0558
   1576 C4'       -42.5090    9.6120   -4.5740 C.3      50   A65       0.1065
   1577 O4'       -42.8570    8.3740   -5.2700 O.3      50   A65      -0.3548
   1578 C3'       -41.0600    9.9120   -4.9360 C.3      50   A65       0.2022
   1579 O3'       -40.2570    9.2640   -3.9720 O.3      50   A65      -0.5246
   1580 C2'       -40.9420    9.2270   -6.3010 C.3      50   A65       0.0670
   1581 O2'       -39.6130    8.9300   -6.7010 O.3      50   A65      -0.6139
   1582 C1'       -41.6970    7.9550   -5.9560 C.3      50   A65       0.0394
   1583 N9        -42.0600    7.1210   -7.0970 N.ar     50   A65      -0.0251
   1584 C8        -42.0660    7.4720   -8.4230 C.ar     50   A65       0.2006
   1585 N7        -42.4150    6.4790   -9.2090 N.ar     50   A65      -0.6073
   1586 C5        -42.6310    5.4150   -8.3570 C.ar     50   A65       0.0515
   1587 C6        -43.0150    4.0790   -8.5780 C.ar     50   A65       0.7009
   1588 N6        -43.2490    3.5680   -9.7930 N.pl3    50   A65      -0.9019
   1589 N1        -43.1540    3.2760   -7.5030 N.ar     50   A65      -0.7615
   1590 C2        -42.9100    3.7780   -6.2780 C.ar     50   A65       0.5875
   1591 N3        -42.5460    5.0220   -5.9540 N.ar     50   A65      -0.6997
   1592 C4        -42.4190    5.7930   -7.0430 C.ar     50   A65       0.3053
   1593 H5'       -43.2667   11.6006   -4.3710 H        50   A65       0.0679
   1594 H5''      -44.5081   10.3656   -4.6792 H        50   A65       0.0679
   1595 H4'       -42.5673    9.4332   -3.5003 H        50   A65       0.1174
   1596 H3'       -40.8596   10.9820   -4.9907 H        50   A65       0.0615
   1597 H2'       -41.4643    9.7955   -7.0705 H        50   A65       0.0972
   1598 H1'       -41.0859    7.3632   -5.2745 H        50   A65       0.2007
   1599 H8        -41.8113    8.4582   -8.7820 H        50   A65       0.1553
   1600 H2        -43.0226    3.0889   -5.4540 H        50   A65       0.0473
   1601 H61       -42.8956    4.1615  -10.5298 H        50   A65       0.4115
   1602 H62       -43.7237    2.6912   -9.9541 H        50   A65       0.4115
   1603 HO2'      -39.1176    9.7465   -6.7985 H        50   A65       0.4186
   1604 P         -38.9580    9.8810   -3.2770 P.3      51   A66       1.1662
   1605 OP1       -39.3820   10.3080   -1.9040 O.co2    51   A66      -0.7760
   1606 OP2       -38.3240   10.8750   -4.1650 O.co2    51   A66      -0.7760
   1607 O5'       -38.0300    8.6090   -3.0720 O.3      51   A66      -0.4989
   1608 C5'       -37.4970    7.9160   -4.1870 C.3      51   A66       0.0558
   1609 C4'       -37.8350    6.4540   -3.9890 C.3      51   A66       0.1065
   1610 O4'       -39.1630    6.1700   -4.4840 O.3      51   A66      -0.3548
   1611 C3'       -36.9740    5.4990   -4.7740 C.3      51   A66       0.2022
   1612 O3'       -35.6740    5.3680   -4.2340 O.3      51   A66      -0.5246
   1613 C2'       -37.8180    4.2520   -4.5640 C.3      51   A66       0.0670
   1614 O2'       -37.7350    3.7400   -3.2430 O.3      51   A66      -0.6139
   1615 C1'       -39.2010    4.8070   -4.8920 C.3      51   A66       0.0394
   1616 N9        -39.3390    4.7360   -6.3450 N.ar     51   A66      -0.0251
   1617 C8        -39.1720    5.7250   -7.2740 C.ar     51   A66       0.2006
   1618 N7        -39.3190    5.3060   -8.5200 N.ar     51   A66      -0.6073
   1619 C5        -39.5480    3.9550   -8.3920 C.ar     51   A66       0.0515
   1620 C6        -39.7750    2.9300   -9.3390 C.ar     51   A66       0.7009
   1621 N6        -39.7880    3.1600  -10.6560 N.pl3    51   A66      -0.9019
   1622 N1        -39.9670    1.6790   -8.8620 N.ar     51   A66      -0.7615
   1623 C2        -39.9390    1.4490   -7.5430 C.ar     51   A66       0.5875
   1624 N3        -39.7380    2.3310   -6.5670 N.ar     51   A66      -0.6997
   1625 C4        -39.5360    3.5690   -7.0640 C.ar     51   A66       0.3053
   1626 H5'       -36.4161    8.0494   -4.2310 H        51   A66       0.0679
   1627 H5''      -37.9546    8.2823   -5.1060 H        51   A66       0.0679
   1628 H4'       -37.7803    6.2073   -2.9287 H        51   A66       0.1174
   1629 H3'       -36.9369    5.7768   -5.8273 H        51   A66       0.0615
   1630 H2'       -37.5399    3.4829   -5.2845 H        51   A66       0.0972
   1631 H1'       -39.9903    4.2539   -4.3829 H        51   A66       0.2007
   1632 H8        -38.9425    6.7483   -7.0158 H        51   A66       0.1553
   1633 H2        -40.0985    0.4263   -7.2348 H        51   A66       0.0473
   1634 H61       -39.6454    4.1098  -10.9685 H        51   A66       0.4115
   1635 H62       -39.9353    2.4096  -11.3158 H        51   A66       0.4115
   1636 HO2'      -36.8499    3.4038   -3.0847 H        51   A66       0.4186
   1637 P         -34.3770    5.4260   -5.1750 P.3      52   U67       1.1662
   1638 OP1       -33.1240    5.1350   -4.4290 O.co2    52   U67      -0.7760
   1639 OP2       -34.4930    6.6850   -5.9670 O.co2    52   U67      -0.7760
   1640 O5'       -34.6840    4.2560   -6.2330 O.3      52   U67      -0.4989
   1641 C5'       -34.0770    2.9800   -6.0670 C.3      52   U67       0.0558
   1642 C4'       -35.0160    1.9830   -5.4190 C.3      52   U67       0.1065
   1643 O4'       -36.2490    1.7950   -6.1620 O.3      52   U67      -0.3548
   1644 C3'       -34.4170    0.5870   -5.3740 C.3      52   U67       0.2022
   1645 O3'       -33.5410    0.4890   -4.2600 O.3      52   U67      -0.5246
   1646 C2'       -35.6610   -0.2560   -5.2120 C.3      52   U67       0.0670
   1647 O2'       -36.1630   -0.2070   -3.8890 O.3      52   U67      -0.6139
   1648 C1'       -36.6310    0.4340   -6.1670 C.3      52   U67       0.0674
   1649 N1        -36.5680   -0.0600   -7.5750 N.am     52   U67       0.0418
   1650 C2        -37.0640   -1.3220   -7.8470 C.2      52   U67       0.4687
   1651 O2        -37.5190   -2.0690   -7.0000 O.2      52   U67      -0.5477
   1652 N3        -36.9680   -1.6950   -9.1620 N.am     52   U67      -0.3549
   1653 C4        -36.4780   -0.9480  -10.2150 C.2      52   U67       0.5952
   1654 O4        -36.4730   -1.4490  -11.3410 O.2      52   U67      -0.5761
   1655 C5        -35.9940    0.3660   -9.8650 C.2      52   U67      -0.3635
   1656 C6        -36.0730    0.7590   -8.5800 C.2      52   U67      -0.1126
   1657 H5'       -33.7826    2.6008   -7.0456 H        52   U67       0.0679
   1658 H5''      -33.1882    3.0873   -5.4452 H        52   U67       0.0679
   1659 H4'       -35.2494    2.3103   -4.4058 H        52   U67       0.1174
   1660 H3'       -33.8995    0.3505   -6.3037 H        52   U67       0.0615
   1661 H2'       -35.4768   -1.2851   -5.5206 H        52   U67       0.0972
   1662 H1'       -37.6489    0.3372   -5.7894 H        52   U67       0.1824
   1663 H3        -37.2934   -2.6242   -9.3873 H        52   U67       0.3154
   1664 H5        -35.5777    1.0194  -10.6174 H        52   U67       0.1811
   1665 H6        -35.7375    1.7522   -8.3206 H        52   U67       0.2188
   1666 HO2'      -35.5467   -0.6431   -3.2960 H        52   U67       0.4186
   1667 P         -32.2320   -0.3830   -4.3380 P.3      53   G68       1.1662
   1668 OP1       -31.4430   -0.1340   -3.1090 O.co2    53   G68      -0.7760
   1669 OP2       -31.5810   -0.1890   -5.6530 O.co2    53   G68      -0.7760
   1670 O5'       -32.7860   -1.8780   -4.3070 O.3      53   G68      -0.4989
   1671 C5'       -33.2440   -2.4340   -3.0790 C.3      53   G68       0.0558
   1672 C4'       -33.9240   -3.7720   -3.2810 C.3      53   G68       0.1065
   1673 O4'       -34.9360   -3.6660   -4.3010 O.3      53   G68      -0.3548
   1674 C3'       -32.9780   -4.8240   -3.8260 C.3      53   G68       0.2022
   1675 O3'       -32.2270   -5.4300   -2.7810 O.3      53   G68      -0.5246
   1676 C2'       -33.9350   -5.8210   -4.4440 C.3      53   G68       0.0670
   1677 O2'       -34.5530   -6.6400   -3.4540 O.3      53   G68      -0.6139
   1678 C1'       -34.9070   -4.8530   -5.0930 C.3      53   G68       0.0191
   1679 N9        -34.5760   -4.4660   -6.4700 N.ar     53   G68       0.0492
   1680 C8        -34.1170   -3.2750   -6.9590 C.ar     53   G68       0.1374
   1681 N7        -33.9490   -3.2470   -8.2510 N.ar     53   G68      -0.5709
   1682 C5        -34.3430   -4.5200   -8.6520 C.ar     53   G68       0.1744
   1683 C6        -34.3830   -5.1140   -9.9400 C.2      53   G68       0.4770
   1684 O6        -34.0750   -4.5960  -11.0270 O.2      53   G68      -0.5597
   1685 N1        -34.8340   -6.4360   -9.8620 N.am     53   G68      -0.4787
   1686 C2        -35.1830   -7.1180   -8.7190 C.2      53   G68       0.7657
   1687 N2        -35.5940   -8.3950   -8.8470 N.pl3    53   G68      -0.9672
   1688 N3        -35.1560   -6.5650   -7.5060 N.2      53   G68      -0.6323
   1689 C4        -34.7240   -5.2800   -7.5660 C.ar     53   G68       0.1222
   1690 H5'       -32.3908   -2.5697   -2.4144 H        53   G68       0.0679
   1691 H5''      -33.9488   -1.7430   -2.6166 H        53   G68       0.0679
   1692 H4'       -34.3673   -4.1134   -2.3456 H        53   G68       0.1174
   1693 H3'       -32.3182   -4.3987   -4.5823 H        53   G68       0.0615
   1694 H2'       -33.4319   -6.4301   -5.1950 H        53   G68       0.0972
   1695 H1'       -35.9009   -5.3005   -5.0863 H        53   G68       0.2006
   1696 H8        -33.9101   -2.4252   -6.3254 H        53   G68       0.1640
   1697 H1        -34.9113   -6.9411  -10.7332 H        53   G68       0.3424
   1698 H21       -35.6292   -8.8251   -9.7602 H        53   G68       0.4364
   1699 H22       -35.8669   -8.9220   -8.0297 H        53   G68       0.4364
   1700 HO2'      -34.2460   -7.5446   -3.5492 H        53   G68       0.4186
   1701 P         -30.7870   -6.0500   -2.9810 P.3      54   U69       1.1662
   1702 OP1       -30.3500   -6.4520   -1.6030 O.co2    54   U69      -0.7760
   1703 OP2       -29.9560   -5.1550   -3.8460 O.co2    54   U69      -0.7760
   1704 O5'       -31.0090   -7.3850   -3.8640 O.3      54   U69      -0.4989
   1705 C5'       -31.8520   -8.4600   -3.4070 C.3      54   U69       0.0558
   1706 C4'       -32.0970   -9.4340   -4.5560 C.3      54   U69       0.1065
   1707 O4'       -32.8990   -8.7680   -5.5510 O.3      54   U69      -0.3548
   1708 C3'       -30.8540   -9.8220   -5.3440 C.3      54   U69       0.2022
   1709 O3'       -30.1930  -10.9050   -4.7650 O.3      54   U69      -0.5246
   1710 C2'       -31.4330  -10.2440   -6.6860 C.3      54   U69       0.0670
   1711 O2'       -32.1330  -11.4720   -6.6410 O.3      54   U69      -0.6139
   1712 C1'       -32.4570   -9.1490   -6.8530 C.3      54   U69       0.0674
   1713 N1        -31.9700   -7.9630   -7.5940 N.am     54   U69       0.0418
   1714 C2        -32.0130   -8.0480   -8.9690 C.2      54   U69       0.4687
   1715 O2        -32.3750   -9.0720   -9.5210 O.2      54   U69      -0.5477
   1716 N3        -31.5960   -6.9200   -9.6340 N.am     54   U69      -0.3549
   1717 C4        -31.1430   -5.7370   -9.0720 C.2      54   U69       0.5952
   1718 O4        -30.8010   -4.7930   -9.8070 O.2      54   U69      -0.5761
   1719 C5        -31.1360   -5.7230   -7.6240 C.2      54   U69      -0.3635
   1720 C6        -31.5360   -6.8100   -6.9500 C.2      54   U69      -0.1126
   1721 H5'       -31.3619   -8.9825   -2.5855 H        54   U69       0.0679
   1722 H5''      -32.8041   -8.0551   -3.0641 H        54   U69       0.0679
   1723 H4'       -32.6083  -10.3257   -4.1932 H        54   U69       0.1174
   1724 H3'       -30.1828   -8.9708   -5.4586 H        54   U69       0.0615
   1725 H2'       -30.6842  -10.2284   -7.4780 H        54   U69       0.0972
   1726 H1'       -33.3091   -9.5608   -7.3938 H        54   U69       0.1824
   1727 H3        -31.6226   -6.9572  -10.6430 H        54   U69       0.3154
   1728 H5        -30.8105   -4.8421   -7.0906 H        54   U69       0.1811
   1729 H6        -31.5207   -6.7896   -5.8703 H        54   U69       0.2188
   1730 HO2'      -31.6231  -12.1483   -7.0929 H        54   U69       0.4186
   1731 P         -28.6220  -11.0760   -4.8230 P.3      55   C70       1.1662
   1732 OP1       -28.2330  -11.9740   -3.7090 O.co2    55   C70      -0.7760
   1733 OP2       -27.9490   -9.7450   -5.0050 O.co2    55   C70      -0.7760
   1734 O5'       -28.3220  -11.8330   -6.2040 O.3      55   C70      -0.4989
   1735 C5'       -28.8500  -13.1620   -6.3870 C.3      55   C70       0.0558
   1736 C4'       -28.9160  -13.5160   -7.8620 C.3      55   C70       0.1065
   1737 O4'       -29.7800  -12.6000   -8.5620 O.3      55   C70      -0.3548
   1738 C3'       -27.6110  -13.4150   -8.6480 C.3      55   C70       0.2022
   1739 O3'       -26.8640  -14.5940   -8.4670 O.3      55   C70      -0.5246
   1740 C2'       -28.1030  -13.2840  -10.0840 C.3      55   C70       0.0670
   1741 O2'       -28.5950  -14.4780  -10.6920 O.3      55   C70      -0.6139
   1742 C1'       -29.2660  -12.3430   -9.8640 C.3      55   C70       0.0066
   1743 N1        -28.9630  -10.8660  -10.0430 N.am     55   C70      -0.0484
   1744 C2        -28.9670  -10.3360  -11.3380 C.2      55   C70       0.7538
   1745 O2        -29.1650  -11.1010  -12.3050 O.2      55   C70      -0.6252
   1746 N3        -28.7310   -9.0040  -11.5170 N.2      55   C70      -0.7584
   1747 C4        -28.5170   -8.2300  -10.4300 C.2      55   C70       0.8185
   1748 N4        -28.2970   -6.9310  -10.6320 N.pl3    55   C70      -0.9530
   1749 C5        -28.5070   -8.7550   -9.1030 C.2      55   C70      -0.5215
   1750 C6        -28.7360  -10.0680   -8.9420 C.2      55   C70       0.0053
   1751 H5'       -28.2044  -13.8766   -5.8764 H        55   C70       0.0679
   1752 H5''      -29.8515  -13.2130   -5.9598 H        55   C70       0.0679
   1753 H4'       -29.3135  -14.5256   -7.9655 H        55   C70       0.1174
   1754 H3'       -27.0385  -12.5375   -8.3475 H        55   C70       0.0615
   1755 H2'       -27.3430  -12.8174  -10.7107 H        55   C70       0.0972
   1756 H1'       -30.0426  -12.6079  -10.5815 H        55   C70       0.2029
   1757 H5        -28.3207   -8.1149   -8.2533 H        55   C70       0.1928
   1758 H6        -28.7424  -10.4984   -7.9515 H        55   C70       0.1958
   1759 H41       -28.2991   -6.5584  -11.5708 H        55   C70       0.4234
   1760 H42       -28.1282   -6.3192   -9.8463 H        55   C70       0.4234
   1761 HO2'      -27.9010  -14.8773  -11.2217 H        55   C70       0.4186
   1762 P         -25.3150  -14.5590   -8.1890 P.3      56   C71       1.1662
   1763 OP1       -25.0190  -15.9000   -7.6210 O.co2    56   C71      -0.7760
   1764 OP2       -24.9380  -13.3530   -7.4230 O.co2    56   C71      -0.7760
   1765 O5'       -24.6140  -14.4070   -9.5970 O.3      56   C71      -0.4989
   1766 C5'       -24.6600  -15.4890  -10.5310 C.3      56   C71       0.0558
   1767 C4'       -24.6220  -14.9790  -11.9650 C.3      56   C71       0.1065
   1768 O4'       -25.7330  -14.0820  -12.2000 O.3      56   C71      -0.3548
   1769 C3'       -23.4130  -14.1520  -12.3640 C.3      56   C71       0.2022
   1770 O3'       -22.2800  -14.9430  -12.6850 O.3      56   C71      -0.5246
   1771 C2'       -23.9580  -13.4820  -13.6170 C.3      56   C71       0.0670
   1772 O2'       -24.0540  -14.3990  -14.6980 O.3      56   C71      -0.6139
   1773 C1'       -25.3340  -13.0820  -13.1400 C.3      56   C71       0.0066
   1774 N1        -25.3480  -11.7230  -12.5000 N.am     56   C71      -0.0484
   1775 C2        -25.4110  -10.6110  -13.3440 C.2      56   C71       0.7538
   1776 O2        -25.4250  -10.7900  -14.5600 O.2      56   C71      -0.6252
   1777 N3        -25.4120   -9.3790  -12.7830 N.2      56   C71      -0.7584
   1778 C4        -25.3620   -9.2310  -11.4590 C.2      56   C71       0.8185
   1779 N4        -25.3800   -7.9790  -10.9820 N.pl3    56   C71      -0.9530
   1780 C5        -25.2920  -10.3580  -10.5580 C.2      56   C71      -0.5215
   1781 C6        -25.2700  -11.5660  -11.1370 C.2      56   C71       0.0053
   1782 H5'       -23.8028  -16.1409  -10.3626 H        56   C71       0.0679
   1783 H5''      -25.5776  -16.0567  -10.3768 H        56   C71       0.0679
   1784 H4'       -24.7063  -15.8285  -12.6428 H        56   C71       0.1174
   1785 H3'       -23.1722  -13.4147  -11.5982 H        56   C71       0.0615
   1786 H2'       -23.3643  -12.6095  -13.8895 H        56   C71       0.0972
   1787 H1'       -26.0227  -13.0881  -13.9848 H        56   C71       0.2029
   1788 H5        -25.2595  -10.2346   -9.4856 H        56   C71       0.1928
   1789 H6        -25.1884  -12.4438  -10.5131 H        56   C71       0.1958
   1790 H41       -25.4294   -7.1966  -11.6188 H        56   C71       0.4234
   1791 H42       -25.3442   -7.8176   -9.9856 H        56   C71       0.4234
   1792 HO2'      -24.5290  -13.9885  -15.4243 H        56   C71       0.4186
   1793 P         -20.7880  -14.3930  -12.5650 P.3      57   G72       1.1662
   1794 OP1       -19.8540  -15.4540  -12.9640 O.co2    57   G72      -0.7760
   1795 OP2       -20.6530  -13.6570  -11.2810 O.co2    57   G72      -0.7760
   1796 O5'       -20.7390  -13.2110  -13.6600 O.3      57   G72      -0.4989
   1797 C5'       -20.7490  -13.5590  -15.0410 C.3      57   G72       0.0558
   1798 C4'       -20.7470  -12.2940  -15.8710 C.3      57   G72       0.1065
   1799 O4'       -21.9800  -11.5690  -15.6380 O.3      57   G72      -0.3548
   1800 C3'       -19.6400  -11.2910  -15.5840 C.3      57   G72       0.2022
   1801 O3'       -18.4900  -11.6970  -16.2990 O.3      57   G72      -0.5246
   1802 C2'       -20.2720  -10.0220  -16.1450 C.3      57   G72       0.0670
   1803 O2'       -20.2240   -9.9830  -17.5610 O.3      57   G72      -0.6139
   1804 C1'       -21.7240  -10.1750  -15.6840 C.3      57   G72       0.0191
   1805 N9        -21.9380   -9.5330  -14.3920 N.ar     57   G72       0.0492
   1806 C8        -21.9810  -10.1050  -13.1320 C.ar     57   G72       0.1374
   1807 N7        -22.1800   -9.2310  -12.1750 N.ar     57   G72      -0.5709
   1808 C5        -22.2530   -7.9960  -12.8410 C.ar     57   G72       0.1744
   1809 C6        -22.4370   -6.6760  -12.3500 C.2      57   G72       0.4770
   1810 O6        -22.5650   -6.2680  -11.1890 O.2      57   G72      -0.5597
   1811 N1        -22.4430   -5.7340  -13.3870 N.am     57   G72      -0.4787
   1812 C2        -22.2780   -6.0410  -14.7220 C.2      57   G72       0.7657
   1813 N2        -22.2870   -5.0210  -15.5950 N.pl3    57   G72      -0.9672
   1814 N3        -22.1100   -7.2700  -15.2000 N.2      57   G72      -0.6323
   1815 C4        -22.1140   -8.1870  -14.1920 C.ar     57   G72       0.1222
   1816 H5'       -19.8634  -14.1500  -15.2747 H        57   G72       0.0679
   1817 H5''      -21.6440  -14.1398  -15.2640 H        57   G72       0.0679
   1818 H4'       -20.7005  -12.5702  -16.9244 H        57   G72       0.1174
   1819 H3'       -19.4411  -11.2044  -14.5158 H        57   G72       0.0615
   1820 H2'       -19.8149   -9.1320  -15.7125 H        57   G72       0.0972
   1821 H1'       -22.3819   -9.7166  -16.4224 H        57   G72       0.2006
   1822 H8        -21.8626  -11.1638  -12.9552 H        57   G72       0.1640
   1823 H1        -22.5773   -4.7638  -13.1405 H        57   G72       0.3424
   1824 H21       -22.4118   -4.0747  -15.2647 H        57   G72       0.4364
   1825 H22       -22.1690   -5.2000  -16.5820 H        57   G72       0.4364
   1826 HO2'      -19.3130   -9.8871  -17.8482 H        57   G72       0.4186
   1827 P         -17.0180  -11.3800  -15.7620 P.3      58   A73       1.1662
   1828 OP1       -16.0890  -12.2620  -16.5040 O.co2    58   A73      -0.7760
   1829 OP2       -16.9690  -11.3100  -14.2890 O.co2    58   A73      -0.7760
   1830 O5'       -16.8550   -9.8710  -16.2680 O.3      58   A73      -0.4989
   1831 C5'       -15.6020   -9.2330  -16.1060 C.3      58   A73       0.0558
   1832 C4'       -15.7280   -7.8300  -16.6650 C.3      58   A73       0.1065
   1833 O4'       -16.7180   -7.0840  -15.9060 O.3      58   A73      -0.3548
   1834 C3'       -14.4570   -7.0020  -16.5770 C.3      58   A73       0.2022
   1835 O3'       -13.6580   -7.2340  -17.7270 O.3      58   A73      -0.5246
   1836 C2'       -15.0260   -5.5890  -16.5260 C.3      58   A73       0.0670
   1837 O2'       -15.4730   -5.1630  -17.8020 O.3      58   A73      -0.6139
   1838 C1'       -16.2320   -5.7850  -15.6130 C.3      58   A73       0.0394
   1839 N9        -16.0030   -5.6650  -14.1620 N.ar     58   A73      -0.0251
   1840 C8        -15.9270   -6.6690  -13.2280 C.ar     58   A73       0.2006
   1841 N7        -15.7420   -6.2400  -11.9990 N.ar     58   A73      -0.6073
   1842 C5        -15.6920   -4.8610  -12.1380 C.ar     58   A73       0.0515
   1843 C6        -15.5140   -3.8120  -11.2130 C.ar     58   A73       0.7009
   1844 N6        -15.3440   -4.0190   -9.9080 N.pl3    58   A73      -0.9019
   1845 N1        -15.5050   -2.5370  -11.6750 N.ar     58   A73      -0.7615
   1846 C2        -15.6800   -2.3360  -12.9910 C.ar     58   A73       0.5875
   1847 N3        -15.8520   -3.2390  -13.9620 N.ar     58   A73      -0.6997
   1848 C4        -15.8520   -4.4940  -13.4620 C.ar     58   A73       0.3053
   1849 H5'       -14.8324   -9.7818  -16.6489 H        58   A73       0.0679
   1850 H5''      -15.3454   -9.1870  -15.0476 H        58   A73       0.0679
   1851 H4'       -16.0453   -7.8876  -17.7062 H        58   A73       0.1174
   1852 H3'       -13.9045   -7.2324  -15.6661 H        58   A73       0.0615
   1853 H2'       -14.3113   -4.8860  -16.0981 H        58   A73       0.0972
   1854 H1'       -16.9966   -5.0625  -15.8984 H        58   A73       0.2007
   1855 H8        -16.0115   -7.7158  -13.4801 H        58   A73       0.1553
   1856 H2        -15.6821   -1.3038  -13.3087 H        58   A73       0.0473
   1857 H61       -15.3430   -4.9603   -9.5419 H        58   A73       0.4115
   1858 H62       -15.2161   -3.2346   -9.2847 H        58   A73       0.4115
   1859 HO2'      -14.7175   -5.0381  -18.3810 H        58   A73       0.4186
   1860 P         -12.0600   -7.0810  -17.6340 P.3      59   U74       1.1662
   1861 OP1       -11.5420   -7.3800  -18.9950 O.co2    59   U74      -0.7760
   1862 OP2       -11.5710   -7.8350  -16.4580 O.co2    59   U74      -0.7760
   1863 O5'       -11.8620   -5.5350  -17.2780 O.3      59   U74      -0.4989
   1864 C5'       -12.0900   -4.4820  -18.2030 C.3      59   U74       0.0558
   1865 C4'       -11.9670   -3.1640  -17.4560 C.3      59   U74       0.1065
   1866 O4'       -12.9440   -3.0970  -16.3800 O.3      59   U74      -0.3548
   1867 C3'       -10.6500   -2.9350  -16.7240 C.3      59   U74       0.2022
   1868 O3'        -9.6490   -2.4760  -17.6120 O.3      59   U74      -0.5246
   1869 C2'       -11.0580   -1.8450  -15.7440 C.3      59   U74       0.0670
   1870 O2'       -11.2590   -0.5800  -16.3530 O.3      59   U74      -0.6139
   1871 C1'       -12.4050   -2.3760  -15.2840 C.3      59   U74       0.0674
   1872 N1        -12.3650   -3.2310  -14.0420 N.am     59   U74       0.0418
   1873 C2        -12.3340   -2.6010  -12.8090 C.2      59   U74       0.4687
   1874 O2        -12.3160   -1.3950  -12.6510 O.2      59   U74      -0.5477
   1875 N3        -12.3220   -3.4460  -11.7240 N.am     59   U74      -0.3549
   1876 C4        -12.3440   -4.8290  -11.7440 C.2      59   U74       0.5952
   1877 O4        -12.3370   -5.4320  -10.6700 O.2      59   U74      -0.5761
   1878 C5        -12.3720   -5.4190  -13.0590 C.2      59   U74      -0.3635
   1879 C6        -12.3930   -4.6170  -14.1390 C.2      59   U74      -0.1126
   1880 H5'       -11.3493   -4.5247  -19.0015 H        59   U74       0.0679
   1881 H5''      -13.0909   -4.5735  -18.6248 H        59   U74       0.0679
   1882 H4'       -12.1399   -2.3410  -18.1495 H        59   U74       0.1174
   1883 H3'       -10.3289   -3.8354  -16.2002 H        59   U74       0.0615
   1884 H2'       -10.3554   -1.7768  -14.9135 H        59   U74       0.0972
   1885 H1'       -13.0553   -1.5237  -15.0871 H        59   U74       0.1824
   1886 H3        -12.2941   -3.0094  -10.8137 H        59   U74       0.3154
   1887 H5        -12.3761   -6.4926  -13.1759 H        59   U74       0.1811
   1888 H6        -12.4332   -5.0679  -15.1195 H        59   U74       0.2188
   1889 HO2'      -11.6498    0.0231  -15.7165 H        59   U74       0.4186
   1890 P          -8.1070   -2.8120  -17.3360 P.3      60   U75       1.1662
   1891 OP1        -7.3440   -2.2140  -18.4700 O.co2    60   U75      -0.7760
   1892 OP2        -7.9960   -4.2600  -17.0690 O.co2    60   U75      -0.7760
   1893 O5'        -7.7800   -1.9950  -16.0080 O.3      60   U75      -0.4989
   1894 C5'        -7.8600   -0.5710  -16.0170 C.3      60   U75       0.0558
   1895 C4'        -7.6710    0.0030  -14.6280 C.3      60   U75       0.1065
   1896 O4'        -8.7870   -0.3530  -13.7630 O.3      60   U75      -0.3548
   1897 C3'        -6.4510   -0.5210  -13.8820 C.3      60   U75       0.2022
   1898 O3'        -5.2620    0.1360  -14.3200 O.3      60   U75      -0.5246
   1899 C2'        -6.8250   -0.1700  -12.4530 C.3      60   U75       0.0670
   1900 O2'        -6.7230    1.2140  -12.1810 O.3      60   U75      -0.6139
   1901 C1'        -8.2920   -0.5860  -12.4510 C.3      60   U75       0.0674
   1902 N1         -8.5330   -2.0100  -12.0240 N.am     60   U75       0.0418
   1903 C2         -8.5850   -2.2830  -10.6700 C.2      60   U75       0.4687
   1904 O2         -8.4310   -1.4280   -9.8060 O.2      60   U75      -0.5477
   1905 N3         -8.8340   -3.6040  -10.3690 N.am     60   U75      -0.3549
   1906 C4         -9.0110   -4.6400  -11.2700 C.2      60   U75       0.5952
   1907 O4         -9.2160   -5.7770  -10.8620 O.2      60   U75      -0.5761
   1908 C5         -8.9290   -4.2810  -12.6590 C.2      60   U75      -0.3635
   1909 C6         -8.7030   -3.0030  -12.9750 C.2      60   U75      -0.1126
   1910 H5'        -7.0832   -0.1766  -16.6721 H        60   U75       0.0679
   1911 H5''       -8.8358   -0.2702  -16.3983 H        60   U75       0.0679
   1912 H4'        -7.6066    1.0889  -14.6973 H        60   U75       0.1174
   1913 H3'        -6.3607   -1.6006  -14.0021 H        60   U75       0.0615
   1914 H2'        -6.2474   -0.7564  -11.7384 H        60   U75       0.0972
   1915 H1'        -8.8290    0.0690  -11.7649 H        60   U75       0.1824
   1916 H3         -8.8936   -3.8414   -9.3891 H        60   U75       0.3154
   1917 H5         -9.0474   -5.0278  -13.4302 H        60   U75       0.1811
   1918 H6         -8.6504   -2.7315  -14.0190 H        60   U75       0.2188
   1919 HO2'       -6.7682    1.3585  -11.2330 H        60   U75       0.4186
   1920 P          -3.8510   -0.6140  -14.2500 P.3      61   A76       1.1662
   1921 OP1        -2.8990    0.2860  -14.9480 O.co2    61   A76      -0.7760
   1922 OP2        -3.9730   -2.0320  -14.6680 O.co2    61   A76      -0.7760
   1923 O5'        -3.5440   -0.6110  -12.6850 O.3      61   A76      -0.4989
   1924 C5'        -3.1580    0.6050  -12.0460 C.3      61   A76       0.0558
   1925 C4'        -2.9390    0.3890  -10.5610 C.3      61   A76       0.1065
   1926 O4'        -4.1820   -0.0170   -9.9250 O.3      61   A76      -0.3548
   1927 C3'        -1.9730   -0.7300  -10.2160 C.3      61   A76       0.2022
   1928 O3'        -0.6300   -0.2660  -10.3450 O.3      61   A76      -0.5246
   1929 C2'        -2.3680   -1.0000   -8.7740 C.3      61   A76       0.0670
   1930 O2'        -1.8890    0.0120   -7.9090 O.3      61   A76      -0.6139
   1931 C1'        -3.8950   -0.9500   -8.8940 C.3      61   A76       0.0394
   1932 N9         -4.5130   -2.2400   -9.2210 N.ar     61   A76      -0.0251
   1933 C8         -4.8190   -2.7280  -10.4670 C.ar     61   A76       0.2006
   1934 N7         -5.3700   -3.9210  -10.4580 N.ar     61   A76      -0.6073
   1935 C5         -5.4360   -4.2410   -9.1100 C.ar     61   A76       0.0515
   1936 C6         -5.9210   -5.3790   -8.4220 C.ar     61   A76       0.7009
   1937 N6         -6.4540   -6.4400   -9.0390 N.pl3    61   A76      -0.9019
   1938 N1         -5.8360   -5.3820   -7.0720 N.ar     61   A76      -0.7615
   1939 C2         -5.3040   -4.3220   -6.4460 C.ar     61   A76       0.5875
   1940 N3         -4.8220   -3.1940   -6.9820 N.ar     61   A76      -0.6997
   1941 C4         -4.9110   -3.2180   -8.3320 C.ar     61   A76       0.3053
   1942 H5'        -2.2324    0.9657  -12.4945 H        61   A76       0.0679
   1943 H5''       -3.9406    1.3501  -12.1890 H        61   A76       0.0679
   1944 H4'        -2.5902    1.3178  -10.1096 H        61   A76       0.1174
   1945 H3'        -2.1474   -1.6057  -10.8412 H        61   A76       0.0615
   1946 H2'        -2.0308   -1.9851   -8.4516 H        61   A76       0.0972
   1947 H1'        -4.3132   -0.5833   -7.9566 H        61   A76       0.2007
   1948 H8         -4.6238   -2.1789  -11.3763 H        61   A76       0.1553
   1949 H2         -5.2585   -4.3869   -5.3689 H        61   A76       0.0473
   1950 HO2'       -2.5010    0.1249   -7.1780 H        61   A76       0.4186
   1951 H61        -7.0119   -7.0110   -8.4204 H        61   A76       0.4115
   1952 H62        -6.3136   -6.6474  -10.0175 H        61   A76       0.4115
   1953 P           0.4990   -1.1970  -10.9890 P.3      62   U77       1.1662
   1954 OP1         1.6230   -0.2860  -11.3340 O.co2    62   U77      -0.7760
   1955 OP2        -0.0640   -2.0780  -12.0290 O.co2    62   U77      -0.7760
   1956 O5'         0.9160   -2.1490   -9.7860 O.3      62   U77      -0.4989
   1957 C5'         1.4690   -1.6360   -8.5830 C.3      62   U77       0.0558
   1958 C4'         1.3970   -2.7260   -7.5350 C.3      62   U77       0.1065
   1959 O4'        -0.0010   -3.0150   -7.2820 O.3      62   U77      -0.3548
   1960 C3'         1.9330   -4.0870   -7.9560 C.3      62   U77       0.2022
   1961 O3'         3.3600   -4.1600   -7.9020 O.3      62   U77      -0.5246
   1962 C2'         1.2500   -4.9890   -6.9350 C.3      62   U77       0.0670
   1963 O2'         1.8270   -4.9460   -5.6420 O.3      62   U77      -0.6139
   1964 C1'        -0.1470   -4.3770   -6.9150 C.3      62   U77       0.0674
   1965 N1         -1.1030   -5.0990   -7.8260 N.am     62   U77       0.0418
   1966 C2         -1.7430   -6.2330   -7.3470 C.2      62   U77       0.4687
   1967 O2         -1.5760   -6.6830   -6.2260 O.2      62   U77      -0.5477
   1968 N3         -2.6030   -6.8390   -8.2320 N.am     62   U77      -0.3549
   1969 C4         -2.8730   -6.4440   -9.5240 C.2      62   U77       0.5952
   1970 O4         -3.6610   -7.1000  -10.1930 O.2      62   U77      -0.5761
   1971 C5         -2.1760   -5.2550   -9.9610 C.2      62   U77      -0.3635
   1972 C6         -1.3360   -4.6390   -9.1120 C.2      62   U77      -0.1126
   1973 H5'         2.5074   -1.3478   -8.7464 H        62   U77       0.0679
   1974 H5''        0.8943   -0.7703   -8.2537 H        62   U77       0.0679
   1975 H4'         1.8848   -2.3976   -6.6172 H        62   U77       0.1174
   1976 H3'         1.5851   -4.3303   -8.9599 H        62   U77       0.0615
   1977 H2'         1.2106   -6.0153   -7.3001 H        62   U77       0.0972
   1978 H1'        -0.5333   -4.4239   -5.8968 H        62   U77       0.1824
   1979 H3         -3.0880   -7.6604   -7.9000 H        62   U77       0.3154
   1980 H5         -2.3285   -4.8668  -10.9572 H        62   U77       0.1811
   1981 H6         -0.8219   -3.7497   -9.4455 H        62   U77       0.2188
   1982 HO2'        1.8732   -5.8347   -5.2820 H        62   U77       0.4186
   1983 P           4.1240   -5.2740   -8.7680 P.3      63   G78       1.1662
   1984 OP1         5.5620   -4.8990   -8.7250 O.co2    63   G78      -0.7760
   1985 OP2         3.4390   -5.3810  -10.0810 O.co2    63   G78      -0.7760
   1986 O5'         3.8990   -6.6620   -8.0050 O.3      63   G78      -0.4989
   1987 C5'         4.4220   -6.9220   -6.7090 C.3      63   G78       0.0558
   1988 C4'         3.7430   -8.1330   -6.0940 C.3      63   G78       0.1065
   1989 O4'         2.2970   -7.9840   -6.0890 O.3      63   G78      -0.3548
   1990 C3'         3.9400   -9.4380   -6.8450 C.3      63   G78       0.2022
   1991 O3'         5.2230   -9.9860   -6.5890 O.3      63   G78      -0.5246
   1992 C2'         2.8120  -10.2860   -6.2640 C.3      63   G78       0.0670
   1993 O2'         3.0790  -10.7820   -4.9630 O.3      63   G78      -0.6139
   1994 C1'         1.6850   -9.2610   -6.2180 C.3      63   G78       0.0191
   1995 N9          0.8430   -9.2810   -7.4160 N.ar     63   G78       0.0492
   1996 C8          0.8350   -8.3560   -8.4320 C.ar     63   G78       0.1374
   1997 N7         -0.0220   -8.6250   -9.3750 N.ar     63   G78      -0.5709
   1998 C5         -0.6260   -9.8030   -8.9590 C.ar     63   G78       0.1744
   1999 C6         -1.6430  -10.5720   -9.5790 C.2      63   G78       0.4770
   2000 O6         -2.2130  -10.3400  -10.6540 O.2      63   G78      -0.5597
   2001 N1         -1.9790  -11.7080   -8.8350 N.am     63   G78      -0.4787
   2002 C2         -1.4000  -12.0500   -7.6320 C.2      63   G78       0.7657
   2003 N2         -1.8460  -13.1730   -7.0500 N.pl3    63   G78      -0.9672
   2004 N3         -0.4460  -11.3330   -7.0380 N.2      63   G78      -0.6323
   2005 C4         -0.1070  -10.2250   -7.7540 C.ar     63   G78       0.1222
   2006 H5'         5.4926   -7.1118   -6.7859 H        63   G78       0.0679
   2007 H5''        4.2550   -6.0533   -6.0722 H        63   G78       0.0679
   2008 H4'         4.0924   -8.2553   -5.0688 H        63   G78       0.1174
   2009 H3'         3.7943   -9.2892   -7.9149 H        63   G78       0.0615
   2010 H2'         2.5595  -11.1025   -6.9405 H        63   G78       0.0972
   2011 H1'         1.0649   -9.4505   -5.3419 H        63   G78       0.2006
   2012 H8          1.4781   -7.4885   -8.4471 H        63   G78       0.1640
   2013 H1         -2.6939  -12.3185   -9.2042 H        63   G78       0.3424
   2014 H21        -2.5693  -13.7196   -7.4952 H        63   G78       0.4364
   2015 H22        -1.4586  -13.4721   -6.1665 H        63   G78       0.4364
   2016 HO2'        2.9133  -11.7273   -4.9402 H        63   G78       0.4186
   2017 P           5.9740  -10.8340   -7.7240 P.3      64   U79       1.1662
   2018 OP1         7.3730  -11.0100   -7.2690 O.co2    64   U79      -0.7760
   2019 OP2         5.7220  -10.2180   -9.0480 O.co2    64   U79      -0.7760
   2020 O5'         5.2300  -12.2450   -7.6450 O.3      64   U79      -0.4989
   2021 C5'         5.3910  -13.0570   -6.4870 C.3      64   U79       0.0558
   2022 C4'         4.4260  -14.2290   -6.5010 C.3      64   U79       0.1065
   2023 O4'         3.0670  -13.7410   -6.6390 O.3      64   U79      -0.3548
   2024 C3'         4.5890  -15.2000   -7.6640 C.3      64   U79       0.2022
   2025 O3'         5.6460  -16.1310   -7.4160 O.3      64   U79      -0.5246
   2026 C2'         3.2140  -15.8590   -7.7040 C.3      64   U79       0.0670
   2027 O2'         3.0520  -16.8690   -6.7230 O.3      64   U79      -0.6139
   2028 C1'         2.2990  -14.6760   -7.3840 C.3      64   U79       0.0674
   2029 N1          1.6930  -13.9970   -8.5890 N.am     64   U79       0.0418
   2030 C2          0.6110  -14.5810   -9.2420 C.2      64   U79       0.4687
   2031 O2          0.0960  -15.6400   -8.9110 O.2      64   U79      -0.5477
   2032 N3          0.1400  -13.8670  -10.3240 N.am     64   U79      -0.3549
   2033 C4          0.6230  -12.6610  -10.8090 C.2      64   U79       0.5952
   2034 O4          0.0950  -12.1420  -11.7860 O.2      64   U79      -0.5761
   2035 C5          1.7440  -12.1150  -10.0800 C.2      64   U79      -0.3635
   2036 C6          2.2220  -12.7880   -9.0230 C.2      64   U79      -0.1126
   2037 H5'         6.4121  -13.4374   -6.4586 H        64   U79       0.0679
   2038 H5''        5.2087  -12.4533   -5.5979 H        64   U79       0.0679
   2039 H4'         4.5155  -14.7768   -5.5629 H        64   U79       0.1174
   2040 H3'         4.7744  -14.6546   -8.5893 H        64   U79       0.0615
   2041 H2'         3.0033  -16.2510   -8.6990 H        64   U79       0.0972
   2042 H1'         1.4878  -15.0337   -6.7499 H        64   U79       0.1824
   2043 H3         -0.6445  -14.2673  -10.8184 H        64   U79       0.3154
   2044 H5          2.1905  -11.1790  -10.3815 H        64   U79       0.1811
   2045 H6          3.0587  -12.3698   -8.4831 H        64   U79       0.2188
   2046 HO2'        3.6278  -17.6095   -6.9273 H        64   U79       0.4186
   2047 P           6.5940  -16.5890   -8.6220 P.3      65   C80       1.1659
   2048 OP2         7.0640  -15.3870   -9.3510 O.co2    65   C80      -0.7761
   2049 O5'         5.5820  -17.3680   -9.5890 O.3      65   C80      -0.4954
   2050 H           7.5607  -17.3300   -8.2284 H        65   C80       0.0000
   2051 H5'         6.0810  -17.8809  -10.2289 H        65   C80       0.0754
@<TRIPOS>BOND
     1    1    2 1
     2    2    3 1
     3    3    5 1
     4    3    4 1
     5    4    9 1
     6    5    7 1
     7    5    6 1
     8    7    9 1
     9    7    8 1
    10    9   10 1
    11   10   19 ar
    12   10   11 ar
    13   11   12 ar
    14   12   13 ar
    15   13   19 ar
    16   13   14 ar
    17   14   16 ar
    18   14   15 1
    19   16   17 ar
    20   17   18 ar
    21   18   19 ar
    22   32   34 1
    23   32   33 1
    24   32   35 1
    25   35   36 1
    26   36   37 1
    27   37   39 1
    28   37   38 1
    29   38   43 1
    30   39   41 1
    31   39   40 1
    32   41   42 1
    33   41   43 1
    34   43   44 1
    35   44   45 ar
    36   44   53 ar
    37   45   46 ar
    38   46   47 ar
    39   47   53 ar
    40   47   48 ar
    41   48   49 1
    42   48   50 ar
    43   50   51 ar
    44   51   52 ar
    45   52   53 ar
    46   32    6 1
    47   65   68 1
    48   65   67 1
    49   65   66 1
    50   68   69 1
    51   69   70 1
    52   70   72 1
    53   70   71 1
    54   71   76 1
    55   72   73 1
    56   72   74 1
    57   74   75 1
    58   74   76 1
    59   76   77 1
    60   77   84 1
    61   77   78 am
    62   78   79 2
    63   78   80 1
    64   80   81 2
    65   81   83 2
    66   81   82 2
    67   83   84 2
    68   40   65 1
    69   96   98 1
    70   96   97 1
    71   96   99 1
    72   99  100 1
    73  100  101 1
    74  101  103 1
    75  101  102 1
    76  102  107 1
    77  103  105 1
    78  103  104 1
    79  105  106 1
    80  105  107 1
    81  107  108 1
    82  108  109 ar
    83  108  117 ar
    84  109  110 ar
    85  110  111 ar
    86  111  117 ar
    87  111  112 ar
    88  112  113 1
    89  112  114 ar
    90  114  115 ar
    91  115  116 ar
    92  116  117 ar
    93   73   96 1
    94  129  132 1
    95  129  131 1
    96  129  130 1
    97  132  133 1
    98  133  134 1
    99  134  136 1
   100  134  135 1
   101  135  140 1
   102  136  138 1
   103  136  137 1
   104  138  139 1
   105  138  140 1
   106  140  141 1
   107  141  142 am
   108  141  148 1
   109  142  143 2
   110  142  144 am
   111  144  145 am
   112  145  147 1
   113  145  146 2
   114  147  148 2
   115  104  129 1
   116  159  161 1
   117  159  160 1
   118  159  162 1
   119  162  163 1
   120  163  164 1
   121  164  166 1
   122  164  165 1
   123  165  170 1
   124  166  168 1
   125  166  167 1
   126  168  169 1
   127  168  170 1
   128  170  171 1
   129  171  172 ar
   130  171  180 ar
   131  172  173 ar
   132  173  174 ar
   133  174  180 ar
   134  174  175 ar
   135  175  176 1
   136  175  177 ar
   137  177  178 ar
   138  178  179 ar
   139  179  180 ar
   140  137  159 1
   141  192  195 1
   142  192  194 1
   143  192  193 1
   144  195  196 1
   145  196  197 1
   146  197  199 1
   147  197  198 1
   148  198  203 1
   149  199  201 1
   150  199  200 1
   151  201  202 1
   152  201  203 1
   153  203  204 1
   154  204  205 am
   155  204  211 1
   156  205  206 2
   157  205  207 am
   158  207  208 am
   159  208  210 1
   160  208  209 2
   161  210  211 2
   162  167  192 1
   163  222  224 1
   164  222  223 1
   165  222  225 1
   166  225  226 1
   167  226  227 1
   168  227  229 1
   169  227  228 1
   170  228  233 1
   171  229  231 1
   172  229  230 1
   173  231  232 1
   174  231  233 1
   175  233  234 1
   176  234  235 ar
   177  234  243 ar
   178  235  236 ar
   179  236  237 ar
   180  237  243 ar
   181  237  238 ar
   182  238  239 1
   183  238  240 ar
   184  240  241 ar
   185  241  242 ar
   186  242  243 ar
   187  200  222 1
   188  255  257 1
   189  255  256 1
   190  255  258 1
   191  258  259 1
   192  259  260 1
   193  260  262 1
   194  260  261 1
   195  261  266 1
   196  262  264 1
   197  262  263 1
   198  264  265 1
   199  264  266 1
   200  266  267 1
   201  267  268 ar
   202  267  276 ar
   203  268  269 ar
   204  269  270 ar
   205  270  276 ar
   206  270  271 ar
   207  271  272 1
   208  271  273 ar
   209  273  274 ar
   210  274  275 ar
   211  275  276 ar
   212  230  255 1
   213  288  291 1
   214  288  290 1
   215  288  289 1
   216  291  292 1
   217  292  293 1
   218  293  295 1
   219  293  294 1
   220  294  299 1
   221  295  297 1
   222  295  296 1
   223  297  298 1
   224  297  299 1
   225  299  300 1
   226  300  301 am
   227  300  307 1
   228  301  302 2
   229  301  303 am
   230  303  304 am
   231  304  306 1
   232  304  305 2
   233  306  307 2
   234  263  288 1
   235  318  321 1
   236  318  320 1
   237  318  319 1
   238  321  322 1
   239  322  323 1
   240  323  325 1
   241  323  324 1
   242  324  329 1
   243  325  326 1
   244  325  327 1
   245  327  328 1
   246  327  329 1
   247  329  330 1
   248  330  337 1
   249  330  331 am
   250  331  332 2
   251  331  333 1
   252  333  334 2
   253  334  336 2
   254  334  335 2
   255  336  337 2
   256  296  318 1
   257  349  350 1
   258  349  351 1
   259  349  352 1
   260  352  353 1
   261  353  354 1
   262  354  356 1
   263  354  355 1
   264  355  360 1
   265  356  358 1
   266  356  357 1
   267  358  360 1
   268  358  359 1
   269  360  361 1
   270  361  371 ar
   271  361  362 ar
   272  362  363 ar
   273  363  364 ar
   274  364  371 ar
   275  364  365 1
   276  365  366 2
   277  365  367 am
   278  367  368 1
   279  368  369 2
   280  368  370 2
   281  370  371 1
   282  326  349 1
   283  383  386 1
   284  383  385 1
   285  383  384 1
   286  386  387 1
   287  387  388 1
   288  388  390 1
   289  388  389 1
   290  389  394 1
   291  390  391 1
   292  390  392 1
   293  392  393 1
   294  392  394 1
   295  394  395 1
   296  395  402 1
   297  395  396 am
   298  396  397 2
   299  396  398 1
   300  398  399 2
   301  399  401 2
   302  399  400 2
   303  401  402 2
   304  357  383 1
   305  414  415 1
   306  414  416 1
   307  414  417 1
   308  417  418 1
   309  418  419 1
   310  419  421 1
   311  419  420 1
   312  420  425 1
   313  421  423 1
   314  421  422 1
   315  423  425 1
   316  423  424 1
   317  425  426 1
   318  426  436 ar
   319  426  427 ar
   320  427  428 ar
   321  428  429 ar
   322  429  436 ar
   323  429  430 1
   324  430  431 2
   325  430  432 am
   326  432  433 1
   327  433  434 2
   328  433  435 2
   329  435  436 1
   330  391  414 1
   331  448  451 1
   332  448  450 1
   333  448  449 1
   334  451  452 1
   335  452  453 1
   336  453  455 1
   337  453  454 1
   338  454  459 1
   339  455  457 1
   340  455  456 1
   341  457  458 1
   342  457  459 1
   343  459  460 1
   344  460  461 am
   345  460  467 1
   346  461  462 2
   347  461  463 am
   348  463  464 am
   349  464  466 1
   350  464  465 2
   351  466  467 2
   352  422  448 1
   353  478  479 1
   354  478  480 1
   355  478  481 1
   356  481  482 1
   357  482  483 1
   358  483  485 1
   359  483  484 1
   360  484  489 1
   361  485  487 1
   362  485  486 1
   363  487  489 1
   364  487  488 1
   365  489  490 1
   366  490  500 ar
   367  490  491 ar
   368  491  492 ar
   369  492  493 ar
   370  493  500 ar
   371  493  494 1
   372  494  495 2
   373  494  496 am
   374  496  497 1
   375  497  498 2
   376  497  499 2
   377  499  500 1
   378  456  478 1
   379  512  513 1
   380  512  514 1
   381  512  515 1
   382  515  516 1
   383  516  517 1
   384  517  519 1
   385  517  518 1
   386  518  523 1
   387  519  521 1
   388  519  520 1
   389  521  523 1
   390  521  522 1
   391  523  524 1
   392  524  534 ar
   393  524  525 ar
   394  525  526 ar
   395  526  527 ar
   396  527  534 ar
   397  527  528 1
   398  528  529 2
   399  528  530 am
   400  530  531 1
   401  531  532 2
   402  531  533 2
   403  533  534 1
   404  486  512 1
   405  546  548 1
   406  546  547 1
   407  546  549 1
   408  549  550 1
   409  550  551 1
   410  551  553 1
   411  551  552 1
   412  552  557 1
   413  553  555 1
   414  553  554 1
   415  555  556 1
   416  555  557 1
   417  557  558 1
   418  558  559 ar
   419  558  567 ar
   420  559  560 ar
   421  560  561 ar
   422  561  567 ar
   423  561  562 ar
   424  562  563 1
   425  562  564 ar
   426  564  565 ar
   427  565  566 ar
   428  566  567 ar
   429  520  546 1
   430  579  582 1
   431  579  581 1
   432  579  580 1
   433  582  583 1
   434  583  584 1
   435  584  586 1
   436  584  585 1
   437  585  590 1
   438  586  588 1
   439  586  587 1
   440  588  589 1
   441  588  590 1
   442  590  591 1
   443  591  592 am
   444  591  598 1
   445  592  593 2
   446  592  594 am
   447  594  595 am
   448  595  597 1
   449  595  596 2
   450  597  598 2
   451  554  579 1
   452  609  611 1
   453  609  610 1
   454  609  612 1
   455  612  613 1
   456  613  614 1
   457  614  616 1
   458  614  615 1
   459  615  620 1
   460  616  618 1
   461  616  617 1
   462  618  619 1
   463  618  620 1
   464  620  621 1
   465  621  622 ar
   466  621  630 ar
   467  622  623 ar
   468  623  624 ar
   469  624  630 ar
   470  624  625 ar
   471  625  626 1
   472  625  627 ar
   473  627  628 ar
   474  628  629 ar
   475  629  630 ar
   476  587  609 1
   477  642  645 1
   478  642  644 1
   479  642  643 1
   480  645  646 1
   481  646  647 1
   482  647  649 1
   483  647  648 1
   484  648  653 1
   485  649  651 1
   486  649  650 1
   487  651  652 1
   488  651  653 1
   489  653  654 1
   490  654  655 am
   491  654  661 1
   492  655  656 2
   493  655  657 am
   494  657  658 am
   495  658  660 1
   496  658  659 2
   497  660  661 2
   498  617  642 1
   499  672  673 1
   500  672  674 1
   501  672  675 1
   502  675  676 1
   503  676  677 1
   504  677  679 1
   505  677  678 1
   506  678  683 1
   507  679  681 1
   508  679  680 1
   509  681  683 1
   510  681  682 1
   511  683  684 1
   512  684  694 ar
   513  684  685 ar
   514  685  686 ar
   515  686  687 ar
   516  687  694 ar
   517  687  688 1
   518  688  689 2
   519  688  690 am
   520  690  691 1
   521  691  692 2
   522  691  693 2
   523  693  694 1
   524  650  672 1
   525  706  707 1
   526  706  708 1
   527  706  709 1
   528  709  710 1
   529  710  711 1
   530  711  713 1
   531  711  712 1
   532  712  717 1
   533  713  715 1
   534  713  714 1
   535  715  717 1
   536  715  716 1
   537  717  718 1
   538  718  728 ar
   539  718  719 ar
   540  719  720 ar
   541  720  721 ar
   542  721  728 ar
   543  721  722 1
   544  722  723 2
   545  722  724 am
   546  724  725 1
   547  725  726 2
   548  725  727 2
   549  727  728 1
   550  680  706 1
   551  740  743 1
   552  740  742 1
   553  740  741 1
   554  743  744 1
   555  744  745 1
   556  745  747 1
   557  745  746 1
   558  746  751 1
   559  747  748 1
   560  747  749 1
   561  749  750 1
   562  749  751 1
   563  751  752 1
   564  752  759 1
   565  752  753 am
   566  753  754 2
   567  753  755 1
   568  755  756 2
   569  756  758 2
   570  756  757 2
   571  758  759 2
   572  714  740 1
   573  771  773 1
   574  771  772 1
   575  771  774 1
   576  774  775 1
   577  775  776 1
   578  776  778 1
   579  776  777 1
   580  777  782 1
   581  778  780 1
   582  778  779 1
   583  780  781 1
   584  780  782 1
   585  782  783 1
   586  783  784 ar
   587  783  792 ar
   588  784  785 ar
   589  785  786 ar
   590  786  792 ar
   591  786  787 ar
   592  787  788 1
   593  787  789 ar
   594  789  790 ar
   595  790  791 ar
   596  791  792 ar
   597  748  771 1
   598  804  807 1
   599  804  806 1
   600  804  805 1
   601  807  808 1
   602  808  809 1
   603  809  811 1
   604  809  810 1
   605  810  815 1
   606  811  812 1
   607  811  813 1
   608  813  814 1
   609  813  815 1
   610  815  816 1
   611  816  823 1
   612  816  817 am
   613  817  818 2
   614  817  819 1
   615  819  820 2
   616  820  822 2
   617  820  821 2
   618  822  823 2
   619  779  804 1
   620  835  836 1
   621  835  837 1
   622  835  838 1
   623  838  839 1
   624  839  840 1
   625  840  842 1
   626  840  841 1
   627  841  846 1
   628  842  844 1
   629  842  843 1
   630  844  846 1
   631  844  845 1
   632  846  847 1
   633  847  857 ar
   634  847  848 ar
   635  848  849 ar
   636  849  850 ar
   637  850  857 ar
   638  850  851 1
   639  851  852 2
   640  851  853 am
   641  853  854 1
   642  854  855 2
   643  854  856 2
   644  856  857 1
   645  812  835 1
   646  869  872 1
   647  869  871 1
   648  869  870 1
   649  872  873 1
   650  873  874 1
   651  874  876 1
   652  874  875 1
   653  875  880 1
   654  876  877 1
   655  876  878 1
   656  878  879 1
   657  878  880 1
   658  880  881 1
   659  881  888 1
   660  881  882 am
   661  882  883 2
   662  882  884 1
   663  884  885 2
   664  885  887 2
   665  885  886 2
   666  887  888 2
   667  843  869 1
   668  900  902 1
   669  900  901 1
   670  900  903 1
   671  903  904 1
   672  904  905 1
   673  905  907 1
   674  905  906 1
   675  906  911 1
   676  907  909 1
   677  907  908 1
   678  909  910 1
   679  909  911 1
   680  911  912 1
   681  912  913 ar
   682  912  921 ar
   683  913  914 ar
   684  914  915 ar
   685  915  921 ar
   686  915  916 ar
   687  916  917 1
   688  916  918 ar
   689  918  919 ar
   690  919  920 ar
   691  920  921 ar
   692  877  900 1
   693  933  935 1
   694  933  934 1
   695  933  936 1
   696  936  937 1
   697  937  938 1
   698  938  940 1
   699  938  939 1
   700  939  944 1
   701  940  942 1
   702  940  941 1
   703  942  943 1
   704  942  944 1
   705  944  945 1
   706  945  946 ar
   707  945  954 ar
   708  946  947 ar
   709  947  948 ar
   710  948  954 ar
   711  948  949 ar
   712  949  950 1
   713  949  951 ar
   714  951  952 ar
   715  952  953 ar
   716  953  954 ar
   717  908  933 1
   718  966  967 1
   719  966  968 1
   720  966  969 1
   721  969  970 1
   722  970  971 1
   723  971  973 1
   724  971  972 1
   725  972  977 1
   726  973  975 1
   727  973  974 1
   728  975  977 1
   729  975  976 1
   730  977  978 1
   731  978  988 ar
   732  978  979 ar
   733  979  980 ar
   734  980  981 ar
   735  981  988 ar
   736  981  982 1
   737  982  983 2
   738  982  984 am
   739  984  985 1
   740  985  986 2
   741  985  987 2
   742  987  988 1
   743  941  966 1
   744 1000 1003 1
   745 1000 1002 1
   746 1000 1001 1
   747 1003 1004 1
   748 1004 1005 1
   749 1005 1007 1
   750 1005 1006 1
   751 1006 1011 1
   752 1007 1009 1
   753 1007 1008 1
   754 1009 1010 1
   755 1009 1011 1
   756 1011 1012 1
   757 1012 1013 am
   758 1012 1019 1
   759 1013 1014 2
   760 1013 1015 am
   761 1015 1016 am
   762 1016 1018 1
   763 1016 1017 2
   764 1018 1019 2
   765  974 1000 1
   766 1030 1033 1
   767 1030 1032 1
   768 1030 1031 1
   769 1033 1034 1
   770 1034 1035 1
   771 1035 1037 1
   772 1035 1036 1
   773 1036 1041 1
   774 1037 1039 1
   775 1037 1038 1
   776 1039 1040 1
   777 1039 1041 1
   778 1041 1042 1
   779 1042 1043 am
   780 1042 1049 1
   781 1043 1044 2
   782 1043 1045 am
   783 1045 1046 am
   784 1046 1048 1
   785 1046 1047 2
   786 1048 1049 2
   787 1008 1030 1
   788 1060 1063 1
   789 1060 1062 1
   790 1060 1061 1
   791 1063 1064 1
   792 1064 1065 1
   793 1065 1067 1
   794 1065 1066 1
   795 1066 1071 1
   796 1067 1069 1
   797 1067 1068 1
   798 1069 1070 1
   799 1069 1071 1
   800 1071 1072 1
   801 1072 1073 am
   802 1072 1079 1
   803 1073 1074 2
   804 1073 1075 am
   805 1075 1076 am
   806 1076 1078 1
   807 1076 1077 2
   808 1078 1079 2
   809 1038 1060 1
   810 1090 1093 1
   811 1090 1092 1
   812 1090 1091 1
   813 1093 1094 1
   814 1094 1095 1
   815 1095 1097 1
   816 1095 1096 1
   817 1096 1101 1
   818 1097 1098 1
   819 1097 1099 1
   820 1099 1100 1
   821 1099 1101 1
   822 1101 1102 1
   823 1102 1109 1
   824 1102 1103 am
   825 1103 1104 2
   826 1103 1105 1
   827 1105 1106 2
   828 1106 1108 2
   829 1106 1107 2
   830 1108 1109 2
   831 1068 1090 1
   832 1121 1124 1
   833 1121 1123 1
   834 1121 1122 1
   835 1124 1125 1
   836 1125 1126 1
   837 1126 1128 1
   838 1126 1127 1
   839 1127 1132 1
   840 1128 1130 1
   841 1128 1129 1
   842 1130 1131 1
   843 1130 1132 1
   844 1132 1133 1
   845 1133 1134 am
   846 1133 1140 1
   847 1134 1135 2
   848 1134 1136 am
   849 1136 1137 am
   850 1137 1139 1
   851 1137 1138 2
   852 1139 1140 2
   853 1098 1121 1
   854 1151 1153 1
   855 1151 1152 1
   856 1151 1154 1
   857 1154 1155 1
   858 1155 1156 1
   859 1156 1158 1
   860 1156 1157 1
   861 1157 1162 1
   862 1158 1160 1
   863 1158 1159 1
   864 1160 1161 1
   865 1160 1162 1
   866 1162 1163 1
   867 1163 1164 ar
   868 1163 1172 ar
   869 1164 1165 ar
   870 1165 1166 ar
   871 1166 1172 ar
   872 1166 1167 ar
   873 1167 1168 1
   874 1167 1169 ar
   875 1169 1170 ar
   876 1170 1171 ar
   877 1171 1172 ar
   878 1129 1151 1
   879 1184 1187 1
   880 1184 1186 1
   881 1184 1185 1
   882 1187 1188 1
   883 1188 1189 1
   884 1189 1191 1
   885 1189 1190 1
   886 1190 1195 1
   887 1191 1192 1
   888 1191 1193 1
   889 1193 1194 1
   890 1193 1195 1
   891 1195 1196 1
   892 1196 1203 1
   893 1196 1197 am
   894 1197 1198 2
   895 1197 1199 1
   896 1199 1200 2
   897 1200 1202 2
   898 1200 1201 2
   899 1202 1203 2
   900 1159 1184 1
   901 1215 1218 1
   902 1215 1217 1
   903 1215 1216 1
   904 1218 1219 1
   905 1219 1220 1
   906 1220 1222 1
   907 1220 1221 1
   908 1221 1226 1
   909 1222 1223 1
   910 1222 1224 1
   911 1224 1225 1
   912 1224 1226 1
   913 1226 1227 1
   914 1227 1234 1
   915 1227 1228 am
   916 1228 1229 2
   917 1228 1230 1
   918 1230 1231 2
   919 1231 1233 2
   920 1231 1232 2
   921 1233 1234 2
   922 1192 1215 1
   923 1246 1247 1
   924 1246 1248 1
   925 1246 1249 1
   926 1249 1250 1
   927 1250 1251 1
   928 1251 1253 1
   929 1251 1252 1
   930 1252 1257 1
   931 1253 1255 1
   932 1253 1254 1
   933 1255 1257 1
   934 1255 1256 1
   935 1257 1258 1
   936 1258 1268 ar
   937 1258 1259 ar
   938 1259 1260 ar
   939 1260 1261 ar
   940 1261 1268 ar
   941 1261 1262 1
   942 1262 1263 2
   943 1262 1264 am
   944 1264 1265 1
   945 1265 1266 2
   946 1265 1267 2
   947 1267 1268 1
   948 1223 1246 1
   949 1280 1281 1
   950 1280 1282 1
   951 1280 1283 1
   952 1283 1284 1
   953 1284 1285 1
   954 1285 1287 1
   955 1285 1286 1
   956 1286 1291 1
   957 1287 1289 1
   958 1287 1288 1
   959 1289 1291 1
   960 1289 1290 1
   961 1291 1292 1
   962 1292 1302 ar
   963 1292 1293 ar
   964 1293 1294 ar
   965 1294 1295 ar
   966 1295 1302 ar
   967 1295 1296 1
   968 1296 1297 2
   969 1296 1298 am
   970 1298 1299 1
   971 1299 1300 2
   972 1299 1301 2
   973 1301 1302 1
   974 1254 1280 1
   975 1314 1315 1
   976 1314 1316 1
   977 1314 1317 1
   978 1317 1318 1
   979 1318 1319 1
   980 1319 1321 1
   981 1319 1320 1
   982 1320 1325 1
   983 1321 1323 1
   984 1321 1322 1
   985 1323 1325 1
   986 1323 1324 1
   987 1325 1326 1
   988 1326 1336 ar
   989 1326 1327 ar
   990 1327 1328 ar
   991 1328 1329 ar
   992 1329 1336 ar
   993 1329 1330 1
   994 1330 1331 2
   995 1330 1332 am
   996 1332 1333 1
   997 1333 1334 2
   998 1333 1335 2
   999 1335 1336 1
  1000 1288 1314 1
  1001 1348 1351 1
  1002 1348 1350 1
  1003 1348 1349 1
  1004 1351 1352 1
  1005 1352 1353 1
  1006 1353 1355 1
  1007 1353 1354 1
  1008 1354 1359 1
  1009 1355 1356 1
  1010 1355 1357 1
  1011 1357 1358 1
  1012 1357 1359 1
  1013 1359 1360 1
  1014 1360 1367 1
  1015 1360 1361 am
  1016 1361 1362 2
  1017 1361 1363 1
  1018 1363 1364 2
  1019 1364 1366 2
  1020 1364 1365 2
  1021 1366 1367 2
  1022 1322 1348 1
  1023 1379 1381 1
  1024 1379 1380 1
  1025 1379 1382 1
  1026 1382 1383 1
  1027 1383 1384 1
  1028 1384 1386 1
  1029 1384 1385 1
  1030 1385 1390 1
  1031 1386 1388 1
  1032 1386 1387 1
  1033 1388 1389 1
  1034 1388 1390 1
  1035 1390 1391 1
  1036 1391 1392 ar
  1037 1391 1400 ar
  1038 1392 1393 ar
  1039 1393 1394 ar
  1040 1394 1400 ar
  1041 1394 1395 ar
  1042 1395 1396 1
  1043 1395 1397 ar
  1044 1397 1398 ar
  1045 1398 1399 ar
  1046 1399 1400 ar
  1047 1356 1379 1
  1048 1412 1415 1
  1049 1412 1414 1
  1050 1412 1413 1
  1051 1415 1416 1
  1052 1416 1417 1
  1053 1417 1419 1
  1054 1417 1418 1
  1055 1418 1423 1
  1056 1419 1420 1
  1057 1419 1421 1
  1058 1421 1422 1
  1059 1421 1423 1
  1060 1423 1424 1
  1061 1424 1431 1
  1062 1424 1425 am
  1063 1425 1426 2
  1064 1425 1427 1
  1065 1427 1428 2
  1066 1428 1430 2
  1067 1428 1429 2
  1068 1430 1431 2
  1069 1387 1412 1
  1070 1443 1446 1
  1071 1443 1445 1
  1072 1443 1444 1
  1073 1446 1447 1
  1074 1447 1448 1
  1075 1448 1450 1
  1076 1448 1449 1
  1077 1449 1454 1
  1078 1450 1451 1
  1079 1450 1452 1
  1080 1452 1453 1
  1081 1452 1454 1
  1082 1454 1455 1
  1083 1455 1462 1
  1084 1455 1456 am
  1085 1456 1457 2
  1086 1456 1458 1
  1087 1458 1459 2
  1088 1459 1461 2
  1089 1459 1460 2
  1090 1461 1462 2
  1091 1420 1443 1
  1092 1474 1475 1
  1093 1474 1476 1
  1094 1474 1477 1
  1095 1477 1478 1
  1096 1478 1479 1
  1097 1479 1481 1
  1098 1479 1480 1
  1099 1480 1485 1
  1100 1481 1483 1
  1101 1481 1482 1
  1102 1483 1485 1
  1103 1483 1484 1
  1104 1485 1486 1
  1105 1486 1496 ar
  1106 1486 1487 ar
  1107 1487 1488 ar
  1108 1488 1489 ar
  1109 1489 1496 ar
  1110 1489 1490 1
  1111 1490 1491 2
  1112 1490 1492 am
  1113 1492 1493 1
  1114 1493 1494 2
  1115 1493 1495 2
  1116 1495 1496 1
  1117 1451 1474 1
  1118 1508 1511 1
  1119 1508 1510 1
  1120 1508 1509 1
  1121 1511 1512 1
  1122 1512 1513 1
  1123 1513 1515 1
  1124 1513 1514 1
  1125 1514 1519 1
  1126 1515 1517 1
  1127 1515 1516 1
  1128 1517 1518 1
  1129 1517 1519 1
  1130 1519 1520 1
  1131 1520 1521 am
  1132 1520 1527 1
  1133 1521 1522 2
  1134 1521 1523 am
  1135 1523 1524 am
  1136 1524 1526 1
  1137 1524 1525 2
  1138 1526 1527 2
  1139 1482 1508 1
  1140 1538 1540 1
  1141 1538 1539 1
  1142 1538 1541 1
  1143 1541 1542 1
  1144 1542 1543 1
  1145 1543 1545 1
  1146 1543 1544 1
  1147 1544 1549 1
  1148 1545 1547 1
  1149 1545 1546 1
  1150 1547 1548 1
  1151 1547 1549 1
  1152 1549 1550 1
  1153 1550 1551 ar
  1154 1550 1559 ar
  1155 1551 1552 ar
  1156 1552 1553 ar
  1157 1553 1559 ar
  1158 1553 1554 ar
  1159 1554 1555 1
  1160 1554 1556 ar
  1161 1556 1557 ar
  1162 1557 1558 ar
  1163 1558 1559 ar
  1164 1516 1538 1
  1165 1571 1573 1
  1166 1571 1572 1
  1167 1571 1574 1
  1168 1574 1575 1
  1169 1575 1576 1
  1170 1576 1578 1
  1171 1576 1577 1
  1172 1577 1582 1
  1173 1578 1580 1
  1174 1578 1579 1
  1175 1580 1581 1
  1176 1580 1582 1
  1177 1582 1583 1
  1178 1583 1584 ar
  1179 1583 1592 ar
  1180 1584 1585 ar
  1181 1585 1586 ar
  1182 1586 1592 ar
  1183 1586 1587 ar
  1184 1587 1588 1
  1185 1587 1589 ar
  1186 1589 1590 ar
  1187 1590 1591 ar
  1188 1591 1592 ar
  1189 1546 1571 1
  1190 1604 1606 1
  1191 1604 1605 1
  1192 1604 1607 1
  1193 1607 1608 1
  1194 1608 1609 1
  1195 1609 1611 1
  1196 1609 1610 1
  1197 1610 1615 1
  1198 1611 1613 1
  1199 1611 1612 1
  1200 1613 1614 1
  1201 1613 1615 1
  1202 1615 1616 1
  1203 1616 1617 ar
  1204 1616 1625 ar
  1205 1617 1618 ar
  1206 1618 1619 ar
  1207 1619 1625 ar
  1208 1619 1620 ar
  1209 1620 1621 1
  1210 1620 1622 ar
  1211 1622 1623 ar
  1212 1623 1624 ar
  1213 1624 1625 ar
  1214 1579 1604 1
  1215 1637 1640 1
  1216 1637 1639 1
  1217 1637 1638 1
  1218 1640 1641 1
  1219 1641 1642 1
  1220 1642 1644 1
  1221 1642 1643 1
  1222 1643 1648 1
  1223 1644 1646 1
  1224 1644 1645 1
  1225 1646 1647 1
  1226 1646 1648 1
  1227 1648 1649 1
  1228 1649 1650 am
  1229 1649 1656 1
  1230 1650 1651 2
  1231 1650 1652 am
  1232 1652 1653 am
  1233 1653 1655 1
  1234 1653 1654 2
  1235 1655 1656 2
  1236 1612 1637 1
  1237 1667 1668 1
  1238 1667 1669 1
  1239 1667 1670 1
  1240 1670 1671 1
  1241 1671 1672 1
  1242 1672 1674 1
  1243 1672 1673 1
  1244 1673 1678 1
  1245 1674 1676 1
  1246 1674 1675 1
  1247 1676 1678 1
  1248 1676 1677 1
  1249 1678 1679 1
  1250 1679 1689 ar
  1251 1679 1680 ar
  1252 1680 1681 ar
  1253 1681 1682 ar
  1254 1682 1689 ar
  1255 1682 1683 1
  1256 1683 1684 2
  1257 1683 1685 am
  1258 1685 1686 1
  1259 1686 1687 2
  1260 1686 1688 2
  1261 1688 1689 1
  1262 1645 1667 1
  1263 1701 1704 1
  1264 1701 1703 1
  1265 1701 1702 1
  1266 1704 1705 1
  1267 1705 1706 1
  1268 1706 1708 1
  1269 1706 1707 1
  1270 1707 1712 1
  1271 1708 1710 1
  1272 1708 1709 1
  1273 1710 1711 1
  1274 1710 1712 1
  1275 1712 1713 1
  1276 1713 1714 am
  1277 1713 1720 1
  1278 1714 1715 2
  1279 1714 1716 am
  1280 1716 1717 am
  1281 1717 1719 1
  1282 1717 1718 2
  1283 1719 1720 2
  1284 1675 1701 1
  1285 1731 1734 1
  1286 1731 1733 1
  1287 1731 1732 1
  1288 1734 1735 1
  1289 1735 1736 1
  1290 1736 1738 1
  1291 1736 1737 1
  1292 1737 1742 1
  1293 1738 1739 1
  1294 1738 1740 1
  1295 1740 1741 1
  1296 1740 1742 1
  1297 1742 1743 1
  1298 1743 1750 1
  1299 1743 1744 am
  1300 1744 1745 2
  1301 1744 1746 1
  1302 1746 1747 2
  1303 1747 1749 2
  1304 1747 1748 2
  1305 1749 1750 2
  1306 1709 1731 1
  1307 1762 1765 1
  1308 1762 1764 1
  1309 1762 1763 1
  1310 1765 1766 1
  1311 1766 1767 1
  1312 1767 1769 1
  1313 1767 1768 1
  1314 1768 1773 1
  1315 1769 1770 1
  1316 1769 1771 1
  1317 1771 1772 1
  1318 1771 1773 1
  1319 1773 1774 1
  1320 1774 1781 1
  1321 1774 1775 am
  1322 1775 1776 2
  1323 1775 1777 1
  1324 1777 1778 2
  1325 1778 1780 2
  1326 1778 1779 2
  1327 1780 1781 2
  1328 1739 1762 1
  1329 1793 1794 1
  1330 1793 1795 1
  1331 1793 1796 1
  1332 1796 1797 1
  1333 1797 1798 1
  1334 1798 1800 1
  1335 1798 1799 1
  1336 1799 1804 1
  1337 1800 1802 1
  1338 1800 1801 1
  1339 1802 1804 1
  1340 1802 1803 1
  1341 1804 1805 1
  1342 1805 1815 ar
  1343 1805 1806 ar
  1344 1806 1807 ar
  1345 1807 1808 ar
  1346 1808 1815 ar
  1347 1808 1809 1
  1348 1809 1810 2
  1349 1809 1811 am
  1350 1811 1812 1
  1351 1812 1813 2
  1352 1812 1814 2
  1353 1814 1815 1
  1354 1770 1793 1
  1355 1827 1829 1
  1356 1827 1828 1
  1357 1827 1830 1
  1358 1830 1831 1
  1359 1831 1832 1
  1360 1832 1834 1
  1361 1832 1833 1
  1362 1833 1838 1
  1363 1834 1836 1
  1364 1834 1835 1
  1365 1836 1837 1
  1366 1836 1838 1
  1367 1838 1839 1
  1368 1839 1840 ar
  1369 1839 1848 ar
  1370 1840 1841 ar
  1371 1841 1842 ar
  1372 1842 1848 ar
  1373 1842 1843 ar
  1374 1843 1844 1
  1375 1843 1845 ar
  1376 1845 1846 ar
  1377 1846 1847 ar
  1378 1847 1848 ar
  1379 1801 1827 1
  1380 1860 1863 1
  1381 1860 1862 1
  1382 1860 1861 1
  1383 1863 1864 1
  1384 1864 1865 1
  1385 1865 1867 1
  1386 1865 1866 1
  1387 1866 1871 1
  1388 1867 1869 1
  1389 1867 1868 1
  1390 1869 1870 1
  1391 1869 1871 1
  1392 1871 1872 1
  1393 1872 1873 am
  1394 1872 1879 1
  1395 1873 1874 2
  1396 1873 1875 am
  1397 1875 1876 am
  1398 1876 1878 1
  1399 1876 1877 2
  1400 1878 1879 2
  1401 1835 1860 1
  1402 1890 1893 1
  1403 1890 1892 1
  1404 1890 1891 1
  1405 1893 1894 1
  1406 1894 1895 1
  1407 1895 1897 1
  1408 1895 1896 1
  1409 1896 1901 1
  1410 1897 1899 1
  1411 1897 1898 1
  1412 1899 1900 1
  1413 1899 1901 1
  1414 1901 1902 1
  1415 1902 1903 am
  1416 1902 1909 1
  1417 1903 1904 2
  1418 1903 1905 am
  1419 1905 1906 am
  1420 1906 1908 1
  1421 1906 1907 2
  1422 1908 1909 2
  1423 1868 1890 1
  1424 1920 1922 1
  1425 1920 1921 1
  1426 1920 1923 1
  1427 1923 1924 1
  1428 1924 1925 1
  1429 1925 1927 1
  1430 1925 1926 1
  1431 1926 1931 1
  1432 1927 1929 1
  1433 1927 1928 1
  1434 1929 1930 1
  1435 1929 1931 1
  1436 1931 1932 1
  1437 1932 1933 ar
  1438 1932 1941 ar
  1439 1933 1934 ar
  1440 1934 1935 ar
  1441 1935 1941 ar
  1442 1935 1936 ar
  1443 1936 1937 1
  1444 1936 1938 ar
  1445 1938 1939 ar
  1446 1939 1940 ar
  1447 1940 1941 ar
  1448 1898 1920 1
  1449 1953 1956 1
  1450 1953 1955 1
  1451 1953 1954 1
  1452 1956 1957 1
  1453 1957 1958 1
  1454 1958 1960 1
  1455 1958 1959 1
  1456 1959 1964 1
  1457 1960 1962 1
  1458 1960 1961 1
  1459 1962 1963 1
  1460 1962 1964 1
  1461 1964 1965 1
  1462 1965 1966 am
  1463 1965 1972 1
  1464 1966 1967 2
  1465 1966 1968 am
  1466 1968 1969 am
  1467 1969 1971 1
  1468 1969 1970 2
  1469 1971 1972 2
  1470 1928 1953 1
  1471 1983 1984 1
  1472 1983 1985 1
  1473 1983 1986 1
  1474 1986 1987 1
  1475 1987 1988 1
  1476 1988 1990 1
  1477 1988 1989 1
  1478 1989 1994 1
  1479 1990 1992 1
  1480 1990 1991 1
  1481 1992 1994 1
  1482 1992 1993 1
  1483 1994 1995 1
  1484 1995 2005 ar
  1485 1995 1996 ar
  1486 1996 1997 ar
  1487 1997 1998 ar
  1488 1998 2005 ar
  1489 1998 1999 1
  1490 1999 2000 2
  1491 1999 2001 am
  1492 2001 2002 1
  1493 2002 2003 2
  1494 2002 2004 2
  1495 2004 2005 1
  1496 1961 1983 1
  1497 2017 2020 1
  1498 2017 2019 1
  1499 2017 2018 1
  1500 2020 2021 1
  1501 2021 2022 1
  1502 2022 2024 1
  1503 2022 2023 1
  1504 2023 2028 1
  1505 2024 2026 1
  1506 2024 2025 1
  1507 2026 2027 1
  1508 2026 2028 1
  1509 2028 2029 1
  1510 2029 2030 am
  1511 2029 2036 1
  1512 2030 2031 2
  1513 2030 2032 am
  1514 2032 2033 am
  1515 2033 2035 1
  1516 2033 2034 2
  1517 2035 2036 2
  1518 1991 2017 1
  1519 2047 2048 1
  1520 2047 2049 1
  1521 2025 2047 1
  1522   20    2 1
  1523   21    2 1
  1524   22    3 1
  1525   23    5 1
  1526   24    7 1
  1527   25    9 1
  1528   26   11 1
  1529   27   17 1
  1530   54   36 1
  1531   55   36 1
  1532   56   37 1
  1533   57   39 1
  1534   58   41 1
  1535   59   43 1
  1536   60   45 1
  1537   61   51 1
  1538   85   69 1
  1539   86   69 1
  1540   87   70 1
  1541   88   72 1
  1542   89   74 1
  1543   90   76 1
  1544   91   83 1
  1545   92   84 1
  1546  118  100 1
  1547  119  100 1
  1548  120  101 1
  1549  121  103 1
  1550  122  105 1
  1551  123  107 1
  1552  124  109 1
  1553  125  115 1
  1554  149  133 1
  1555  150  133 1
  1556  151  134 1
  1557  152  136 1
  1558  153  138 1
  1559  154  140 1
  1560  155  144 1
  1561  156  147 1
  1562  157  148 1
  1563  181  163 1
  1564  182  163 1
  1565  183  164 1
  1566  184  166 1
  1567  185  168 1
  1568  186  170 1
  1569  187  172 1
  1570  188  178 1
  1571  212  196 1
  1572  213  196 1
  1573  214  197 1
  1574  215  199 1
  1575  216  201 1
  1576  217  203 1
  1577  218  207 1
  1578  219  210 1
  1579  220  211 1
  1580  244  226 1
  1581  245  226 1
  1582  246  227 1
  1583  247  229 1
  1584  248  231 1
  1585  249  233 1
  1586  250  235 1
  1587  251  241 1
  1588  277  259 1
  1589  278  259 1
  1590  279  260 1
  1591  280  262 1
  1592  281  264 1
  1593  282  266 1
  1594  283  268 1
  1595  284  274 1
  1596  308  292 1
  1597  309  292 1
  1598  310  293 1
  1599  311  295 1
  1600  312  297 1
  1601  313  299 1
  1602  314  303 1
  1603  315  306 1
  1604  316  307 1
  1605  338  322 1
  1606  339  322 1
  1607  340  323 1
  1608  341  325 1
  1609  342  327 1
  1610  343  329 1
  1611  344  336 1
  1612  345  337 1
  1613  372  353 1
  1614  373  353 1
  1615  374  354 1
  1616  375  356 1
  1617  376  358 1
  1618  377  360 1
  1619  378  362 1
  1620  379  367 1
  1621  403  387 1
  1622  404  387 1
  1623  405  388 1
  1624  406  390 1
  1625  407  392 1
  1626  408  394 1
  1627  409  401 1
  1628  410  402 1
  1629  437  418 1
  1630  438  418 1
  1631  439  419 1
  1632  440  421 1
  1633  441  423 1
  1634  442  425 1
  1635  443  427 1
  1636  444  432 1
  1637  468  452 1
  1638  469  452 1
  1639  470  453 1
  1640  471  455 1
  1641  472  457 1
  1642  473  459 1
  1643  474  463 1
  1644  475  466 1
  1645  476  467 1
  1646  501  482 1
  1647  502  482 1
  1648  503  483 1
  1649  504  485 1
  1650  505  487 1
  1651  506  489 1
  1652  507  491 1
  1653  508  496 1
  1654  535  516 1
  1655  536  516 1
  1656  537  517 1
  1657  538  519 1
  1658  539  521 1
  1659  540  523 1
  1660  541  525 1
  1661  542  530 1
  1662  568  550 1
  1663  569  550 1
  1664  570  551 1
  1665  571  553 1
  1666  572  555 1
  1667  573  557 1
  1668  574  559 1
  1669  575  565 1
  1670  599  583 1
  1671  600  583 1
  1672  601  584 1
  1673  602  586 1
  1674  603  588 1
  1675  604  590 1
  1676  605  594 1
  1677  606  597 1
  1678  607  598 1
  1679  631  613 1
  1680  632  613 1
  1681  633  614 1
  1682  634  616 1
  1683  635  618 1
  1684  636  620 1
  1685  637  622 1
  1686  638  628 1
  1687  662  646 1
  1688  663  646 1
  1689  664  647 1
  1690  665  649 1
  1691  666  651 1
  1692  667  653 1
  1693  668  657 1
  1694  669  660 1
  1695  670  661 1
  1696  695  676 1
  1697  696  676 1
  1698  697  677 1
  1699  698  679 1
  1700  699  681 1
  1701  700  683 1
  1702  701  685 1
  1703  702  690 1
  1704  729  710 1
  1705  730  710 1
  1706  731  711 1
  1707  732  713 1
  1708  733  715 1
  1709  734  717 1
  1710  735  719 1
  1711  736  724 1
  1712  760  744 1
  1713  761  744 1
  1714  762  745 1
  1715  763  747 1
  1716  764  749 1
  1717  765  751 1
  1718  766  758 1
  1719  767  759 1
  1720  793  775 1
  1721  794  775 1
  1722  795  776 1
  1723  796  778 1
  1724  797  780 1
  1725  798  782 1
  1726  799  784 1
  1727  800  790 1
  1728  824  808 1
  1729  825  808 1
  1730  826  809 1
  1731  827  811 1
  1732  828  813 1
  1733  829  815 1
  1734  830  822 1
  1735  831  823 1
  1736  858  839 1
  1737  859  839 1
  1738  860  840 1
  1739  861  842 1
  1740  862  844 1
  1741  863  846 1
  1742  864  848 1
  1743  865  853 1
  1744  889  873 1
  1745  890  873 1
  1746  891  874 1
  1747  892  876 1
  1748  893  878 1
  1749  894  880 1
  1750  895  887 1
  1751  896  888 1
  1752  922  904 1
  1753  923  904 1
  1754  924  905 1
  1755  925  907 1
  1756  926  909 1
  1757  927  911 1
  1758  928  913 1
  1759  929  919 1
  1760  955  937 1
  1761  956  937 1
  1762  957  938 1
  1763  958  940 1
  1764  959  942 1
  1765  960  944 1
  1766  961  946 1
  1767  962  952 1
  1768  989  970 1
  1769  990  970 1
  1770  991  971 1
  1771  992  973 1
  1772  993  975 1
  1773  994  977 1
  1774  995  979 1
  1775  996  984 1
  1776 1020 1004 1
  1777 1021 1004 1
  1778 1022 1005 1
  1779 1023 1007 1
  1780 1024 1009 1
  1781 1025 1011 1
  1782 1026 1015 1
  1783 1027 1018 1
  1784 1028 1019 1
  1785 1050 1034 1
  1786 1051 1034 1
  1787 1052 1035 1
  1788 1053 1037 1
  1789 1054 1039 1
  1790 1055 1041 1
  1791 1056 1045 1
  1792 1057 1048 1
  1793 1058 1049 1
  1794 1080 1064 1
  1795 1081 1064 1
  1796 1082 1065 1
  1797 1083 1067 1
  1798 1084 1069 1
  1799 1085 1071 1
  1800 1086 1075 1
  1801 1087 1078 1
  1802 1088 1079 1
  1803 1110 1094 1
  1804 1111 1094 1
  1805 1112 1095 1
  1806 1113 1097 1
  1807 1114 1099 1
  1808 1115 1101 1
  1809 1116 1108 1
  1810 1117 1109 1
  1811 1141 1125 1
  1812 1142 1125 1
  1813 1143 1126 1
  1814 1144 1128 1
  1815 1145 1130 1
  1816 1146 1132 1
  1817 1147 1136 1
  1818 1148 1139 1
  1819 1149 1140 1
  1820 1173 1155 1
  1821 1174 1155 1
  1822 1175 1156 1
  1823 1176 1158 1
  1824 1177 1160 1
  1825 1178 1162 1
  1826 1179 1164 1
  1827 1180 1170 1
  1828 1204 1188 1
  1829 1205 1188 1
  1830 1206 1189 1
  1831 1207 1191 1
  1832 1208 1193 1
  1833 1209 1195 1
  1834 1210 1202 1
  1835 1211 1203 1
  1836 1235 1219 1
  1837 1236 1219 1
  1838 1237 1220 1
  1839 1238 1222 1
  1840 1239 1224 1
  1841 1240 1226 1
  1842 1241 1233 1
  1843 1242 1234 1
  1844 1269 1250 1
  1845 1270 1250 1
  1846 1271 1251 1
  1847 1272 1253 1
  1848 1273 1255 1
  1849 1274 1257 1
  1850 1275 1259 1
  1851 1276 1264 1
  1852 1303 1284 1
  1853 1304 1284 1
  1854 1305 1285 1
  1855 1306 1287 1
  1856 1307 1289 1
  1857 1308 1291 1
  1858 1309 1293 1
  1859 1310 1298 1
  1860 1337 1318 1
  1861 1338 1318 1
  1862 1339 1319 1
  1863 1340 1321 1
  1864 1341 1323 1
  1865 1342 1325 1
  1866 1343 1327 1
  1867 1344 1332 1
  1868 1368 1352 1
  1869 1369 1352 1
  1870 1370 1353 1
  1871 1371 1355 1
  1872 1372 1357 1
  1873 1373 1359 1
  1874 1374 1366 1
  1875 1375 1367 1
  1876 1401 1383 1
  1877 1402 1383 1
  1878 1403 1384 1
  1879 1404 1386 1
  1880 1405 1388 1
  1881 1406 1390 1
  1882 1407 1392 1
  1883 1408 1398 1
  1884 1432 1416 1
  1885 1433 1416 1
  1886 1434 1417 1
  1887 1435 1419 1
  1888 1436 1421 1
  1889 1437 1423 1
  1890 1438 1430 1
  1891 1439 1431 1
  1892 1463 1447 1
  1893 1464 1447 1
  1894 1465 1448 1
  1895 1466 1450 1
  1896 1467 1452 1
  1897 1468 1454 1
  1898 1469 1461 1
  1899 1470 1462 1
  1900 1497 1478 1
  1901 1498 1478 1
  1902 1499 1479 1
  1903 1500 1481 1
  1904 1501 1483 1
  1905 1502 1485 1
  1906 1503 1487 1
  1907 1504 1492 1
  1908 1528 1512 1
  1909 1529 1512 1
  1910 1530 1513 1
  1911 1531 1515 1
  1912 1532 1517 1
  1913 1533 1519 1
  1914 1534 1523 1
  1915 1535 1526 1
  1916 1536 1527 1
  1917 1560 1542 1
  1918 1561 1542 1
  1919 1562 1543 1
  1920 1563 1545 1
  1921 1564 1547 1
  1922 1565 1549 1
  1923 1566 1551 1
  1924 1567 1557 1
  1925 1593 1575 1
  1926 1594 1575 1
  1927 1595 1576 1
  1928 1596 1578 1
  1929 1597 1580 1
  1930 1598 1582 1
  1931 1599 1584 1
  1932 1600 1590 1
  1933 1626 1608 1
  1934 1627 1608 1
  1935 1628 1609 1
  1936 1629 1611 1
  1937 1630 1613 1
  1938 1631 1615 1
  1939 1632 1617 1
  1940 1633 1623 1
  1941 1657 1641 1
  1942 1658 1641 1
  1943 1659 1642 1
  1944 1660 1644 1
  1945 1661 1646 1
  1946 1662 1648 1
  1947 1663 1652 1
  1948 1664 1655 1
  1949 1665 1656 1
  1950 1690 1671 1
  1951 1691 1671 1
  1952 1692 1672 1
  1953 1693 1674 1
  1954 1694 1676 1
  1955 1695 1678 1
  1956 1696 1680 1
  1957 1697 1685 1
  1958 1721 1705 1
  1959 1722 1705 1
  1960 1723 1706 1
  1961 1724 1708 1
  1962 1725 1710 1
  1963 1726 1712 1
  1964 1727 1716 1
  1965 1728 1719 1
  1966 1729 1720 1
  1967 1751 1735 1
  1968 1752 1735 1
  1969 1753 1736 1
  1970 1754 1738 1
  1971 1755 1740 1
  1972 1756 1742 1
  1973 1757 1749 1
  1974 1758 1750 1
  1975 1782 1766 1
  1976 1783 1766 1
  1977 1784 1767 1
  1978 1785 1769 1
  1979 1786 1771 1
  1980 1787 1773 1
  1981 1788 1780 1
  1982 1789 1781 1
  1983 1816 1797 1
  1984 1817 1797 1
  1985 1818 1798 1
  1986 1819 1800 1
  1987 1820 1802 1
  1988 1821 1804 1
  1989 1822 1806 1
  1990 1823 1811 1
  1991 1849 1831 1
  1992 1850 1831 1
  1993 1851 1832 1
  1994 1852 1834 1
  1995 1853 1836 1
  1996 1854 1838 1
  1997 1855 1840 1
  1998 1856 1846 1
  1999 1880 1864 1
  2000 1881 1864 1
  2001 1882 1865 1
  2002 1883 1867 1
  2003 1884 1869 1
  2004 1885 1871 1
  2005 1886 1875 1
  2006 1887 1878 1
  2007 1888 1879 1
  2008 1910 1894 1
  2009 1911 1894 1
  2010 1912 1895 1
  2011 1913 1897 1
  2012 1914 1899 1
  2013 1915 1901 1
  2014 1916 1905 1
  2015 1917 1908 1
  2016 1918 1909 1
  2017 1942 1924 1
  2018 1943 1924 1
  2019 1944 1925 1
  2020 1945 1927 1
  2021 1946 1929 1
  2022 1947 1931 1
  2023 1948 1933 1
  2024 1949 1939 1
  2025 1973 1957 1
  2026 1974 1957 1
  2027 1975 1958 1
  2028 1976 1960 1
  2029 1977 1962 1
  2030 1978 1964 1
  2031 1979 1968 1
  2032 1980 1971 1
  2033 1981 1972 1
  2034 2006 1987 1
  2035 2007 1987 1
  2036 2008 1988 1
  2037 2009 1990 1
  2038 2010 1992 1
  2039 2011 1994 1
  2040 2012 1996 1
  2041 2013 2001 1
  2042 2037 2021 1
  2043 2038 2021 1
  2044 2039 2022 1
  2045 2040 2024 1
  2046 2041 2026 1
  2047 2042 2028 1
  2048 2043 2032 1
  2049 2044 2035 1
  2050 2045 2036 1
  2051 2050 2047 1
  2052   93   82 1
  2053   94   82 1
  2054  346  335 1
  2055  347  335 1
  2056  380  369 1
  2057  381  369 1
  2058  411  400 1
  2059  412  400 1
  2060  445  434 1
  2061  446  434 1
  2062  509  498 1
  2063  510  498 1
  2064  543  532 1
  2065  544  532 1
  2066  703  692 1
  2067  704  692 1
  2068  737  726 1
  2069  738  726 1
  2070  768  757 1
  2071  769  757 1
  2072  832  821 1
  2073  833  821 1
  2074  866  855 1
  2075  867  855 1
  2076  897  886 1
  2077  898  886 1
  2078  997  986 1
  2079  998  986 1
  2080 1118 1107 1
  2081 1119 1107 1
  2082 1212 1201 1
  2083 1213 1201 1
  2084 1243 1232 1
  2085 1244 1232 1
  2086 1277 1266 1
  2087 1278 1266 1
  2088 1311 1300 1
  2089 1312 1300 1
  2090 1345 1334 1
  2091 1346 1334 1
  2092 1376 1365 1
  2093 1377 1365 1
  2094 1440 1429 1
  2095 1441 1429 1
  2096 1471 1460 1
  2097 1472 1460 1
  2098 1505 1494 1
  2099 1506 1494 1
  2100 1698 1687 1
  2101 1699 1687 1
  2102 1759 1748 1
  2103 1760 1748 1
  2104 1790 1779 1
  2105 1791 1779 1
  2106 1824 1813 1
  2107 1825 1813 1
  2108 2014 2003 1
  2109 2015 2003 1
  2110  608  589 1
  2111 1089 1070 1
  2112 1473 1453 1
  2113  705  682 1
  2114  576  556 1
  2115 1919 1900 1
  2116 1029 1010 1
  2117 1568 1548 1
  2118   28    8 1
  2119 1950 1930 1
  2120 1982 1963 1
  2121 1442 1422 1
  2122 1730 1711 1
  2123  477  458 1
  2124 1761 1741 1
  2125 1181 1161 1
  2126  189  169 1
  2127  126  106 1
  2128 1150 1131 1
  2129 2016 1993 1
  2130 1700 1677 1
  2131 1279 1256 1
  2132  770  750 1
  2133 1214 1194 1
  2134  577  563 1
  2135  578  563 1
  2136 1951 1937 1
  2137 1952 1937 1
  2138 1409 1396 1
  2139 1410 1396 1
  2140  930  917 1
  2141  931  917 1
  2142  190  176 1
  2143  191  176 1
  2144   29   15 1
  2145   30   15 1
  2146 1182 1168 1
  2147 1183 1168 1
  2148   62   49 1
  2149   63   49 1
  2150  801  788 1
  2151  802  788 1
  2152  285  272 1
  2153  286  272 1
  2154  252  239 1
  2155  253  239 1
  2156 1601 1588 1
  2157 1602 1588 1
  2158 1634 1621 1
  2159 1635 1621 1
  2160  127  113 1
  2161  128  113 1
  2162 1857 1844 1
  2163 1858 1844 1
  2164  639  626 1
  2165  640  626 1
  2166  963  950 1
  2167  964  950 1
  2168 1569 1555 1
  2169 1570 1555 1
  2170  641  619 1
  2171  287  265 1
  2172  999  976 1
  2173 1347 1324 1
  2174 1378 1358 1
  2175  317  298 1
  2176  932  910 1
  2177 1245 1225 1
  2178 1859 1837 1
  2179  158  139 1
  2180 2051 2049 1
  2181  348  328 1
  2182 1889 1870 1
  2183  671  652 1
  2184 2046 2027 1
  2185 1537 1518 1
  2186  221  202 1
  2187  834  814 1
  2188   64   42 1
  2189 1603 1581 1
  2190  545  522 1
  2191 1826 1803 1
  2192  965  943 1
  2193  868  845 1
  2194  382  359 1
  2195  254  232 1
  2196  413  393 1
  2197 1411 1389 1
  2198   95   75 1
  2199 1636 1614 1
  2200 1792 1772 1
  2201  511  488 1
  2202  739  716 1
  2203  803  781 1
  2204 1507 1484 1
  2205  447  424 1
  2206  899  879 1
  2207 1313 1290 1
  2208 1666 1647 1
  2209 1059 1040 1
  2210 1120 1100 1
  2211   31    1 1
@<TRIPOS>SUBSTRUCTURE
     1   A16       3 RESIDUE           4 A       A     1 ROOT
     2   A17      37 RESIDUE           4 A       A     2
     3   C18      70 RESIDUE           4 A       C     2
     4   A19     101 RESIDUE           4 A       A     2
     5   U20     134 RESIDUE           4 A       U     2
     6   A21     164 RESIDUE           4 A       A     2
     7   U22     197 RESIDUE           4 A       U     2
     8   A23     227 RESIDUE           4 A       A     2
     9   A24     260 RESIDUE           4 A       A     2
    10   U25     293 RESIDUE           4 A       U     2
    11   C26     323 RESIDUE           4 A       C     2
    12   G27     354 RESIDUE           4 A       G     2
    13   C28     388 RESIDUE           4 A       C     2
    14   G29     419 RESIDUE           4 A       G     2
    15   U30     453 RESIDUE           4 A       U     2
    16   G31     483 RESIDUE           4 A       G     2
    17   G32     517 RESIDUE           4 A       G     2
    18   A33     551 RESIDUE           4 A       A     2
    19   U34     584 RESIDUE           4 A       U     2
    20   A35     614 RESIDUE           4 A       A     2
    21   U36     647 RESIDUE           4 A       U     2
    22   G37     677 RESIDUE           4 A       G     2
    23   G38     711 RESIDUE           4 A       G     2
    24   C39     745 RESIDUE           4 A       C     2
    25   A40     776 RESIDUE           4 A       A     2
    26   C41     809 RESIDUE           4 A       C     2
    27   G42     840 RESIDUE           4 A       G     2
    28   C43     874 RESIDUE           4 A       C     2
    29   A44     905 RESIDUE           4 A       A     2
    30   A45     938 RESIDUE           4 A       A     2
    31   G46     971 RESIDUE           4 A       G     2
    32   U47    1005 RESIDUE           4 A       U     2
    33   U48    1035 RESIDUE           4 A       U     2
    34   U49    1065 RESIDUE           4 A       U     2
    35   C50    1095 RESIDUE           4 A       C     2
    36   U51    1126 RESIDUE           4 A       U     2
    37   A52    1156 RESIDUE           4 A       A     2
    38   C53    1189 RESIDUE           4 A       C     2
    39   C54    1220 RESIDUE           4 A       C     2
    40   G55    1251 RESIDUE           4 A       G     2
    41   G56    1285 RESIDUE           4 A       G     2
    42   G57    1319 RESIDUE           4 A       G     2
    43   C58    1353 RESIDUE           4 A       C     2
    44   A59    1384 RESIDUE           4 A       A     2
    45   C60    1417 RESIDUE           4 A       C     2
    46   C61    1448 RESIDUE           4 A       C     2
    47   G62    1479 RESIDUE           4 A       G     2
    48   U63    1513 RESIDUE           4 A       U     2
    49   A64    1543 RESIDUE           4 A       A     2
    50   A65    1576 RESIDUE           4 A       A     2
    51   A66    1609 RESIDUE           4 A       A     2
    52   U67    1642 RESIDUE           4 A       U     2
    53   G68    1672 RESIDUE           4 A       G     2
    54   U69    1706 RESIDUE           4 A       U     2
    55   C70    1736 RESIDUE           4 A       C     2
    56   C71    1767 RESIDUE           4 A       C     2
    57   G72    1798 RESIDUE           4 A       G     2
    58   A73    1832 RESIDUE           4 A       A     2
    59   U74    1865 RESIDUE           4 A       U     2
    60   U75    1895 RESIDUE           4 A       U     2
    61   A76    1925 RESIDUE           4 A       A     2
    62   U77    1958 RESIDUE           4 A       U     2
    63   G78    1988 RESIDUE           4 A       G     2
    64   U79    2022 RESIDUE           4 A       U     2
    65   C80    2047 RESIDUE           4 A       C     1
