@<TRIPOS>MOLECULE
6BFB.pdb
3514 3793 110 0 0
NUCLEIC_ACID
AMBER ff14SB


@<TRIPOS>ATOM
      1 O5'        -6.1570   38.5730   18.6650 O.3       1   G1       -0.6223
      2 C5'        -5.5840   37.3440   19.1180 C.3       1   G1        0.0558
      3 C4'        -6.5510   36.6040   20.0270 C.3       1   G1        0.1065
      4 O4'        -7.8000   36.3960   19.3180 O.3       1   G1       -0.3548
      5 C3'        -6.1130   35.2070   20.4540 C.3       1   G1        0.2022
      6 O3'        -5.3300   35.2610   21.6320 O.3       1   G1       -0.5246
      7 C2'        -7.4520   34.5130   20.6900 C.3       1   G1        0.0670
      8 O2'        -8.0570   34.8710   21.9230 O.3       1   G1       -0.6139
      9 C1'        -8.2660   35.0670   19.5310 C.3       1   G1        0.0191
     10 N9         -8.1410   34.2960   18.2750 N.ar      1   G1        0.0492
     11 C8         -7.4950   34.6880   17.1100 C.ar      1   G1        0.1374
     12 N7         -7.5940   33.8250   16.1380 N.ar      1   G1       -0.5709
     13 C5         -8.3520   32.7890   16.6810 C.ar      1   G1        0.1744
     14 C6         -8.7930   31.5780   16.0890 C.2       1   G1        0.4770
     15 O6         -8.5750   31.1750   14.9400 O.2       1   G1       -0.5597
     16 N1         -9.5490   30.7950   16.9820 N.am      1   G1       -0.4787
     17 C2         -9.8140   31.1350   18.2940 C.2       1   G1        0.7657
     18 N2        -10.5230   30.2500   19.0050 N.pl3     1   G1       -0.9672
     19 N3         -9.4350   32.2840   18.8550 N.2       1   G1       -0.6323
     20 C4         -8.7060   33.0630   17.9930 C.ar      1   G1        0.1222
     21 H5'        -4.6679   37.5579   19.6686 H         1   G1        0.0679
     22 H5''       -5.3486   36.7180   18.2573 H         1   G1        0.0679
     23 H4'        -6.7398   37.2069   20.9152 H         1   G1        0.1174
     24 H3'        -5.5634   34.7158   19.6510 H         1   G1        0.0615
     25 H2'        -7.3478   33.4310   20.6087 H         1   G1        0.0972
     26 H1'        -9.3160   35.1026   19.8213 H         1   G1        0.2006
     27 H8         -6.9600   35.6216   17.0177 H         1   G1        0.1640
     28 H1         -9.9243   29.9224   16.6386 H         1   G1        0.3424
     29 H21       -10.8221   29.3841   18.5797 H         1   G1        0.4364
     30 H22       -10.7589   30.4480   19.9669 H         1   G1        0.4364
     31 HO5'       -5.5330   39.0259   18.0931 H         1   G1        0.4295
     32 HO2'       -7.5377   34.5179   22.6492 H         1   G1        0.4186
     33 P          -4.1340   34.2050   21.8560 P.3       2   G2        1.1662
     34 OP1        -3.4350   34.5720   23.1130 O.co2     2   G2       -0.7760
     35 OP2        -3.3480   34.1120   20.5920 O.co2     2   G2       -0.7760
     36 O5'        -4.9190   32.8070   22.0680 O.3       2   G2       -0.4989
     37 C5'        -4.8450   32.1030   23.3190 C.3       2   G2        0.0558
     38 C4'        -5.6500   30.8150   23.2770 C.3       2   G2        0.1065
     39 O4'        -6.7730   30.9660   22.3650 O.3       2   G2       -0.3548
     40 C3'        -4.9180   29.5860   22.7520 C.3       2   G2        0.2022
     41 O3'        -4.0910   28.9860   23.7670 O.3       2   G2       -0.5246
     42 C2'        -6.0970   28.6940   22.3600 C.3       2   G2        0.0670
     43 O2'        -6.7300   28.0720   23.4730 O.3       2   G2       -0.6139
     44 C1'        -7.0340   29.7220   21.7130 C.3       2   G2        0.0191
     45 N9         -6.8150   29.8770   20.2570 N.ar      2   G2        0.0492
     46 C8         -6.1960   30.9320   19.6110 C.ar      2   G2        0.1374
     47 N7         -6.0920   30.7700   18.3180 N.ar      2   G2       -0.5709
     48 C5         -6.6570   29.5190   18.0850 C.ar      2   G2        0.1744
     49 C6         -6.8340   28.8060   16.8650 C.2       2   G2        0.4770
     50 O6         -6.4920   29.1480   15.7210 O.2       2   G2       -0.5597
     51 N1         -7.4470   27.5570   17.0710 N.am      2   G2       -0.4787
     52 C2         -7.8480   27.0690   18.3020 C.2       2   G2        0.7657
     53 N2         -8.4020   25.8490   18.3090 N.pl3     2   G2       -0.9672
     54 N3         -7.7080   27.7340   19.4470 N.2       2   G2       -0.6323
     55 C4         -7.1130   28.9540   19.2660 C.ar      2   G2        0.1222
     56 H5'        -3.8028   31.8633   23.5301 H         2   G2        0.0679
     57 H5''       -5.2330   32.7417   24.1125 H         2   G2        0.0679
     58 H4'        -6.0304   30.6016   24.2759 H         2   G2        0.1174
     59 H3'        -4.3229   29.8408   21.8750 H         2   G2        0.0615
     60 H2'        -5.7857   27.9469   21.6299 H         2   G2        0.0972
     61 H1'        -8.0687   29.4305   21.8931 H         2   G2        0.2006
     62 H8         -5.8324   31.8083   20.1270 H         2   G2        0.1640
     63 H1         -7.6060   26.9741   16.2617 H         2   G2        0.3424
     64 H21        -8.5094   25.3382   17.4443 H         2   G2        0.4364
     65 H22        -8.7122   25.4402   19.1789 H         2   G2        0.4364
     66 HO2'       -6.1314   27.4326   23.8660 H         2   G2        0.4186
     67 P          -2.7270   28.2100   23.3630 P.3       3   A3        1.1662
     68 OP1        -2.0210   27.8390   24.6150 O.co2     3   A3       -0.7760
     69 OP2        -2.0100   29.0100   22.3380 O.co2     3   A3       -0.7760
     70 O5'        -3.2670   26.8690   22.6520 O.3       3   A3       -0.4989
     71 C5'        -3.9230   25.8440   23.4190 C.3       3   A3        0.0558
     72 C4'        -4.4680   24.7320   22.5240 C.3       3   A3        0.1065
     73 O4'        -5.5120   25.2600   21.6450 O.3       3   A3       -0.3548
     74 C3'        -3.4680   24.1010   21.5590 C.3       3   A3        0.2022
     75 O3'        -2.6210   23.1340   22.2000 O.3       3   A3       -0.5246
     76 C2'        -4.4150   23.4960   20.5190 C.3       3   A3        0.0670
     77 O2'        -5.1140   22.3480   20.9890 O.3       3   A3       -0.6139
     78 C1'        -5.3820   24.6710   20.3430 C.3       3   A3        0.0394
     79 N9         -4.8930   25.6970   19.3840 N.ar      3   A3       -0.0251
     80 C8         -4.4010   26.9460   19.6820 C.ar      3   A3        0.2006
     81 N7         -4.0050   27.6340   18.6370 N.ar      3   A3       -0.6073
     82 C5         -4.2280   26.7810   17.5720 C.ar      3   A3        0.0515
     83 C6         -4.0390   26.9300   16.1770 C.ar      3   A3        0.7009
     84 N6         -3.5210   28.0300   15.6210 N.pl3     3   A3       -0.9019
     85 N1         -4.3570   25.8790   15.3790 N.ar      3   A3       -0.7615
     86 C2         -4.8390   24.7570   15.9430 C.ar      3   A3        0.5875
     87 N3         -5.1030   24.5120   17.2340 N.ar      3   A3       -0.6997
     88 C4         -4.7630   25.5720   18.0080 C.ar      3   A3        0.3053
     89 H5'        -3.2073   25.4146   24.1200 H         3   A3        0.0679
     90 H5''       -4.7468   26.2884   23.9775 H         3   A3        0.0679
     91 H4'        -4.8958   23.9502   23.1516 H         3   A3        0.1174
     92 H3'        -2.8588   24.8779   21.0971 H         3   A3        0.0615
     93 H2'        -3.8885   23.2800   19.5893 H         3   A3        0.0972
     94 H1'        -6.3518   24.2980   20.0138 H         3   A3        0.2007
     95 H8         -4.3452   27.3283   20.6905 H         3   A3        0.1553
     96 H2         -5.0408   23.9426   15.2629 H         3   A3        0.0473
     97 H61        -3.2606   28.8146   16.2013 H         3   A3        0.4115
     98 H62        -3.3901   28.0764   14.6206 H         3   A3        0.4115
     99 HO2'       -4.4983   21.6192   21.0953 H         3   A3        0.4186
    100 P          -1.0650   23.0100   21.7640 P.3       4   U4        1.1662
    101 OP1        -0.4080   22.0670   22.7000 O.co2     4   U4       -0.7760
    102 OP2        -0.4990   24.3770   21.5870 O.co2     4   U4       -0.7760
    103 O5'        -1.1520   22.3270   20.3150 O.3       4   U4       -0.4989
    104 C5'        -1.6620   20.9840   20.1690 C.3       4   U4        0.0558
    105 C4'        -1.6470   20.5470   18.7110 C.3       4   U4        0.1065
    106 O4'        -2.4750   21.4480   17.9210 O.3       4   U4       -0.3548
    107 C3'        -0.2870   20.6080   18.0290 C.3       4   U4        0.2022
    108 O3'         0.4920   19.4500   18.3190 O.3       4   U4       -0.5246
    109 C2'        -0.6870   20.6910   16.5600 C.3       4   U4        0.0670
    110 O2'        -1.0740   19.4390   16.0120 O.3       4   U4       -0.6139
    111 C1'        -1.8840   21.6350   16.6330 C.3       4   U4        0.0674
    112 N1         -1.5260   23.1250   16.4190 N.am      4   U4        0.0418
    113 C2         -1.3980   23.6220   15.1150 C.2       4   U4        0.4687
    114 O2         -1.5440   22.9370   14.1110 O.2       4   U4       -0.5477
    115 N3         -1.1020   24.9700   15.0360 N.am      4   U4       -0.3549
    116 C4         -0.9330   25.8560   16.0920 C.2       4   U4        0.5952
    117 O4         -0.6890   27.0330   15.8600 O.2       4   U4       -0.5761
    118 C5         -1.0650   25.2730   17.4080 C.2       4   U4       -0.3635
    119 C6         -1.3540   23.9640   17.5220 C.2       4   U4       -0.1126
    120 H5'        -2.6864   20.9502   20.5400 H         4   U4        0.0679
    121 H5''       -1.0461   20.3011   20.7542 H         4   U4        0.0679
    122 H4'        -2.0429   19.5343   18.6346 H         4   U4        0.1174
    123 H3'         0.2475   21.5096   18.3283 H         4   U4        0.0615
    124 H2'         0.1147   21.1351   15.9700 H         4   U4        0.0972
    125 H1'        -2.6068   21.3388   15.8728 H         4   U4        0.1824
    126 H3         -0.9970   25.3530   14.1073 H         4   U4        0.3154
    127 H5         -0.9330   25.8817   18.2903 H         4   U4        0.1811
    128 H6         -1.4577   23.5431   18.5112 H         4   U4        0.2188
    129 HO2'       -0.3115   18.8570   15.9726 H         4   U4        0.4186
    130 P           2.0450   19.5940   18.7330 P.3       5   C5        1.1662
    131 OP1         2.3870   18.3980   19.5440 O.co2     5   C5       -0.7760
    132 OP2         2.2780   20.9600   19.2900 O.co2     5   C5       -0.7760
    133 O5'         2.8180   19.4900   17.3260 O.3       5   C5       -0.4989
    134 C5'         3.1190   20.6540   16.5590 C.3       5   C5        0.0558
    135 C4'         2.7800   20.4210   15.0990 C.3       5   C5        0.1065
    136 O4'         1.6510   21.2500   14.7300 O.3       5   C5       -0.3548
    137 C3'         3.8870   20.7710   14.1230 C.3       5   C5        0.2022
    138 O3'         4.6700   19.6200   13.8660 O.3       5   C5       -0.5246
    139 C2'         3.1130   21.2280   12.8870 C.3       5   C5        0.0670
    140 O2'         2.6930   20.1490   12.0650 O.3       5   C5       -0.6139
    141 C1'         1.9060   21.9210   13.5140 C.3       5   C5        0.0066
    142 N1          2.0870   23.4310   13.8000 N.am      5   C5       -0.0484
    143 C2          2.0690   24.3700   12.7340 C.2       5   C5        0.7538
    144 O2          1.9820   23.9720   11.5620 O.2       5   C5       -0.6252
    145 N3          2.1930   25.7010   13.0260 N.2       5   C5       -0.7584
    146 C4          2.3020   26.1090   14.3000 C.2       5   C5        0.8185
    147 N4          2.3990   27.4220   14.5280 N.pl3     5   C5       -0.9530
    148 C5          2.3060   25.1830   15.3930 C.2       5   C5       -0.5215
    149 C6          2.1650   23.8780   15.1050 C.2       5   C5        0.0053
    150 H5'         2.5344   21.4938   16.9347 H         5   C5        0.0679
    151 H5''        4.1807   20.8829   16.6513 H         5   C5        0.0679
    152 H4'         2.5081   19.3743   14.9630 H         5   C5        0.1174
    153 H3'         4.5049   21.5798   14.5131 H         5   C5        0.0615
    154 H2'         3.7032   21.9395   12.3095 H         5   C5        0.0972
    155 H1'         1.0470   21.7904   12.8558 H         5   C5        0.2029
    156 H5          2.4184   25.5217   16.4124 H         5   C5        0.1928
    157 H6          2.1114   23.1623   15.9120 H         5   C5        0.1958
    158 H41         2.3923   28.0708   13.7540 H         5   C5        0.4234
    159 H42         2.4790   27.7657   15.4744 H         5   C5        0.4234
    160 HO2'        2.9888   20.2985   11.1640 H         5   C5        0.4186
    161 P           6.2720   19.6990   13.8680 P.3       6   U6        1.1662
    162 OP1         6.7800   18.3040   13.8320 O.co2     6   U6       -0.7760
    163 OP2         6.7030   20.6110   14.9570 O.co2     6   U6       -0.7760
    164 O5'         6.5960   20.4150   12.4700 O.3       6   U6       -0.4989
    165 C5'         6.2070   19.7870   11.2430 C.3       6   U6        0.0558
    166 C4'         6.1790   20.7750   10.0910 C.3       6   U6        0.1065
    167 O4'         5.1370   21.7640   10.2930 O.3       6   U6       -0.3548
    168 C3'         7.4280   21.6080    9.9120 C.3       6   U6        0.2022
    169 O3'         8.4460   20.8570    9.2800 O.3       6   U6       -0.5246
    170 C2'         6.8980   22.7290    9.0270 C.3       6   U6        0.0670
    171 O2'         6.7620   22.3460    7.6670 O.3       6   U6       -0.6139
    172 C1'         5.5230   22.9810    9.6480 C.3       6   U6        0.0674
    173 N1          5.5040   24.1520   10.6540 N.am      6   U6        0.0418
    174 C2          5.5110   25.4720   10.1810 C.2       6   U6        0.4687
    175 O2          5.5160   25.7710    8.9930 O.2       6   U6       -0.5477
    176 N3          5.4860   26.4370   11.1670 N.am      6   U6       -0.3549
    177 C4          5.4490   26.2360   12.5430 C.2       6   U6        0.5952
    178 O4          5.4310   27.2040   13.2950 O.2       6   U6       -0.5761
    179 C5          5.4680   24.8520   12.9610 C.2       6   U6       -0.3635
    180 C6          5.4930   23.8850   12.0250 C.2       6   U6       -0.1126
    181 H5'         6.9182   18.9942   11.0111 H         6   U6        0.0679
    182 H5''        5.2149   19.3520   11.3639 H         6   U6        0.0679
    183 H4'         5.9789   20.2342    9.1660 H         6   U6        0.1174
    184 H3'         7.7729   21.9999   10.8689 H         6   U6        0.0615
    185 H2'         7.5261   23.6155    9.1144 H         6   U6        0.0972
    186 H1'         4.8124   23.1943    8.8495 H         6   U6        0.1824
    187 H3          5.4957   27.3974   10.8545 H         6   U6        0.3154
    188 H5          5.4622   24.5974   14.0105 H         6   U6        0.1811
    189 H6          5.5051   22.8548   12.3491 H         6   U6        0.2188
    190 HO2'        7.0984   23.0454    7.1019 H         6   U6        0.4186
    191 P           9.9860   21.1330    9.6320 P.3       7   U7        1.1662
    192 OP1        10.7820   20.0470    9.0130 O.co2     7   U7       -0.7760
    193 OP2        10.1030   21.3850   11.0910 O.co2     7   U7       -0.7760
    194 O5'        10.2840   22.5180    8.8680 O.3       7   U7       -0.4989
    195 C5'        10.2370   22.5820    7.4330 C.3       7   U7        0.0558
    196 C4'        10.0560   24.0110    6.9350 C.3       7   U7        0.1065
    197 O4'         8.8750   24.6030    7.5350 O.3       7   U7       -0.3548
    198 C3'        11.1530   24.9820    7.3090 C.3       7   U7        0.2022
    199 O3'        12.2960   24.8240    6.4950 O.3       7   U7       -0.5246
    200 C2'        10.4470   26.3230    7.1090 C.3       7   U7        0.0670
    201 O2'        10.2980   26.6870    5.7450 O.3       7   U7       -0.6139
    202 C1'         9.0830   26.0090    7.7120 C.3       7   U7        0.0674
    203 N1          8.9550   26.3810    9.2050 N.am      7   U7        0.0418
    204 C2          8.7060   27.7070    9.5640 C.2       7   U7        0.4687
    205 O2          8.6060   28.6170    8.7570 O.2       7   U7       -0.5477
    206 N3          8.5740   27.9240   10.9230 N.am      7   U7       -0.3549
    207 C4          8.6750   26.9810   11.9420 C.2       7   U7        0.5952
    208 O4          8.5170   27.3240   13.1090 O.2       7   U7       -0.5761
    209 C5          8.9290   25.6300   11.4970 C.2       7   U7       -0.3635
    210 C6          9.0620   25.3860   10.1810 C.2       7   U7       -0.1126
    211 H5'        11.1691   22.1842    7.0316 H         7   U7        0.0679
    212 H5''        9.4067   21.9726    7.0762 H         7   U7        0.0679
    213 H4'         9.9406   24.0009    5.8512 H         7   U7        0.1174
    214 H3'        11.4217   24.8549    8.3577 H         7   U7        0.0615
    215 H2'        10.9471   27.1128    7.6695 H         7   U7        0.0972
    216 H1'         8.3201   26.5486    7.1507 H         7   U7        0.1824
    217 H3          8.3827   28.8737   11.2087 H         7   U7        0.3154
    218 H5          9.0111   24.8254   12.2128 H         7   U7        0.1811
    219 H6          9.2609   24.3732    9.8632 H         7   U7        0.2188
    220 HO2'       10.7115   27.5401    5.5940 H         7   U7        0.4186
    221 P          13.7470   24.9030    7.1760 P.3       8   C8        1.1662
    222 OP1        14.7350   24.3470    6.2200 O.co2     8   C8       -0.7760
    223 OP2        13.6520   24.3250    8.5430 O.co2     8   C8       -0.7760
    224 O5'        13.9790   26.4880    7.3210 O.3       8   C8       -0.4989
    225 C5'        14.2710   27.2790    6.1670 C.3       8   C8        0.0558
    226 C4'        13.8640   28.7320    6.3630 C.3       8   C8        0.1065
    227 O4'        12.5520   28.7970    6.9800 O.3       8   C8       -0.3548
    228 C3'        14.7360   29.5390    7.3060 C.3       8   C8        0.2022
    229 O3'        15.9430   29.9770    6.6880 O.3       8   C8       -0.5246
    230 C2'        13.8010   30.6880    7.6670 C.3       8   C8        0.0670
    231 O2'        13.6690   31.6640    6.6440 O.3       8   C8       -0.6139
    232 C1'        12.4920   29.9260    7.8490 C.3       8   C8        0.0066
    233 N1         12.2550   29.4660    9.2830 N.am      8   C8       -0.0484
    234 C2         11.8740   30.4060   10.2530 C.2       8   C8        0.7538
    235 O2         11.7300   31.5880    9.9210 O.2       8   C8       -0.6252
    236 N3         11.6460   29.9870   11.5310 N.2       8   C8       -0.7584
    237 C4         11.8210   28.7030   11.8600 C.2       8   C8        0.8185
    238 N4         11.5900   28.3440   13.1280 N.pl3     8   C8       -0.9530
    239 C5         12.2500   27.7310   10.8990 C.2       8   C8       -0.5215
    240 C6         12.4510   28.1500    9.6380 C.2       8   C8        0.0053
    241 H5'        15.3424   27.2357    5.9711 H         8   C8        0.0679
    242 H5''       13.7350   26.8710    5.3100 H         8   C8        0.0679
    243 H4'        13.8293   29.2286    5.3933 H         8   C8        0.1174
    244 H3'        14.9650   28.9519    8.1954 H         8   C8        0.0615
    245 H2'        14.1080   31.1529    8.6038 H         8   C8        0.0972
    246 H1'        11.6647   30.5656    7.5414 H         8   C8        0.2029
    247 H5         12.4062   26.6993   11.1777 H         8   C8        0.1928
    248 H6         12.7723   27.4413    8.8890 H         8   C8        0.1958
    249 H41        11.2905   29.0343   13.8017 H         8   C8        0.4234
    250 H42        11.7152   27.3827   13.4115 H         8   C8        0.4234
    251 HO2'       14.4993   32.1347    6.5411 H         8   C8        0.4186
    252 P          17.3180   29.9200    7.5240 P.3       9   G9        1.1662
    253 OP1        18.4200   30.3730    6.6410 O.co2     9   G9       -0.7760
    254 OP2        17.4050   28.5990    8.1930 O.co2     9   G9       -0.7760
    255 O5'        17.0790   31.0210    8.6590 O.3       9   G9       -0.4989
    256 C5'        16.8570   32.3960    8.3070 C.3       9   G9        0.0558
    257 C4'        16.4530   33.2010    9.5270 C.3       9   G9        0.1065
    258 O4'        15.2080   32.6870   10.0760 O.3       9   G9       -0.3548
    259 C3'        17.4300   33.1230   10.6830 C.3       9   G9        0.2022
    260 O3'        18.4830   34.0320   10.4760 O.3       9   G9       -0.5246
    261 C2'        16.5400   33.5390   11.8490 C.3       9   G9        0.0670
    262 O2'        16.3470   34.9400   11.9150 O.3       9   G9       -0.6139
    263 C1'        15.2200   32.8430   11.4950 C.3       9   G9        0.0191
    264 N9         15.0550   31.5250   12.1540 N.ar      9   G9        0.0492
    265 C8         15.3490   30.2840   11.6290 C.ar      9   G9        0.1374
    266 N7         15.1490   29.3010   12.4650 N.ar      9   G9       -0.5709
    267 C5         14.7280   29.9220   13.6310 C.ar      9   G9        0.1744
    268 C6         14.3530   29.3640   14.8860 C.2       9   G9        0.4770
    269 O6         14.3260   28.1700   15.2170 O.2       9   G9       -0.5597
    270 N1         13.9940   30.3510   15.8110 N.am      9   G9       -0.4787
    271 C2         13.9980   31.7050   15.5550 C.2       9   G9        0.7657
    272 N2         13.6360   32.5030   16.5660 N.pl3     9   G9       -0.9672
    273 N3         14.3140   32.2370   14.3780 N.2       9   G9       -0.6323
    274 C4         14.6750   31.2920   13.4650 C.ar      9   G9        0.1222
    275 H5'        16.0628   32.4513    7.5625 H         9   G9        0.0679
    276 H5''       17.7729   32.8127    7.8879 H         9   G9        0.0679
    277 H4'        16.3166   34.2439    9.2409 H         9   G9        0.1174
    278 H3'        17.8049   32.1081   10.8151 H         9   G9        0.0615
    279 H2'        16.9358   33.1593   12.7910 H         9   G9        0.0972
    280 H1'        14.3916   33.4889   11.7858 H         9   G9        0.2006
    281 H8         15.7105   30.1389   10.6217 H         9   G9        0.1640
    282 H1         13.7117   30.0491   16.7326 H         9   G9        0.3424
    283 H21        13.3869   32.1042   17.4599 H         9   G9        0.4364
    284 H22        13.6118   33.5042   16.4353 H         9   G9        0.4364
    285 HO2'       17.1305   35.3868   11.5862 H         9   G9        0.4186
    286 P          20.0140   33.5590   10.5300 P.3      10   G10       1.1662
    287 OP1        20.3310   32.7900    9.3030 O.co2    10   G10      -0.7760
    288 OP2        20.2890   32.9670   11.8610 O.co2    10   G10      -0.7760
    289 O5'        20.7470   34.9580   10.4680 O.3      10   G10      -0.4989
    290 C5'        20.7060   35.7710    9.2900 C.3      10   G10       0.0558
    291 C4'        22.0430   36.4790    9.1340 C.3      10   G10       0.1065
    292 O4'        22.2850   37.3220   10.3130 O.3      10   G10      -0.3548
    293 C3'        23.2450   35.5210    9.0610 C.3      10   G10       0.2022
    294 O3'        24.2360   36.0560    8.2110 O.3      10   G10      -0.5246
    295 C2'        23.7070   35.4680   10.5250 C.3      10   G10       0.0670
    296 O2'        25.0600   35.0640   10.6920 O.3      10   G10      -0.6139
    297 C1'        23.4980   36.9240   10.9320 C.3      10   G10       0.0191
    298 N9         23.4290   37.1450   12.3790 N.ar     10   G10       0.0492
    299 C8         23.2840   36.1870   13.3570 C.ar     10   G10       0.1374
    300 N7         23.3880   36.6540   14.5700 N.ar     10   G10      -0.5709
    301 C5         23.6710   37.9980   14.3940 C.ar     10   G10       0.1744
    302 C6         23.8830   39.0190   15.3570 C.2      10   G10       0.4770
    303 O6         23.8610   38.9250   16.5860 O.2      10   G10      -0.5597
    304 N1         24.1330   40.2570   14.7640 N.am     10   G10      -0.4787
    305 C2         24.1510   40.4900   13.4030 C.2      10   G10       0.7657
    306 N2         24.3880   41.7570   13.0260 N.pl3    10   G10      -0.9672
    307 N3         23.9500   39.5410   12.4790 N.2      10   G10      -0.6323
    308 C4         23.7320   38.3160   13.0480 C.ar     10   G10       0.1222
    309 H5'        20.5206   35.1432    8.4185 H        10   G10       0.0679
    310 H5''       19.9102   36.5099    9.3838 H        10   G10       0.0679
    311 H4'        22.0212   37.1026    8.2403 H        10   G10       0.1174
    312 H3'        22.9329   34.5345    8.7181 H        10   G10       0.0615
    313 H2'        23.0483   34.8193   11.1025 H        10   G10       0.0972
    314 H1'        24.3126   37.5225   10.5243 H        10   G10       0.2006
    315 H8         23.1010   35.1450   13.1397 H        10   G10       0.1640
    316 H1         24.3141   41.0404   15.3752 H        10   G10       0.3424
    317 H21        24.5395   42.4715   13.7236 H        10   G10       0.4364
    318 H22        24.4147   41.9954   12.0449 H        10   G10       0.4364
    319 HO2'       25.3738   34.6527    9.8833 H        10   G10       0.4186
    320 P          25.1940   35.0940    7.3510 P.3      11   G11       1.1662
    321 OP1        24.3990   34.5650    6.2080 O.co2    11   G11      -0.7760
    322 OP2        25.8980   34.1580    8.2740 O.co2    11   G11      -0.7760
    323 O5'        26.2710   36.1360    6.7990 O.3      11   G11      -0.4989
    324 C5'        25.8170   37.2480    6.0330 C.3      11   G11       0.0558
    325 C4'        26.4430   38.5400    6.5100 C.3      11   G11       0.1065
    326 O4'        25.9990   38.8670    7.8420 O.3      11   G11      -0.3548
    327 C3'        27.9430   38.5280    6.5990 C.3      11   G11       0.2022
    328 O3'        28.4730   38.7330    5.2840 O.3      11   G11      -0.5246
    329 C2'        28.1930   39.7170    7.5310 C.3      11   G11       0.0670
    330 O2'        28.1590   40.9520    6.8470 O.3      11   G11      -0.6139
    331 C1'        26.9950   39.6360    8.4860 C.3      11   G11       0.0191
    332 N9         27.2770   39.0230    9.7840 N.ar     11   G11       0.0492
    333 C8         27.2980   37.6760   10.0720 C.ar     11   G11       0.1374
    334 N7         27.4950   37.4130   11.3310 N.ar     11   G11      -0.5709
    335 C5         27.5140   38.6530   11.9350 C.ar     11   G11       0.1744
    336 C6         27.6650   38.9880   13.2990 C.2      11   G11       0.4770
    337 O6         27.8300   38.2170   14.2620 O.2      11   G11      -0.5597
    338 N1         27.7000   40.3750   13.4950 N.am     11   G11      -0.4787
    339 C2         27.5770   41.3150   12.4890 C.2      11   G11       0.7657
    340 N2         27.6140   42.6010   12.8710 N.pl3    11   G11      -0.9672
    341 N3         27.4220   41.0110   11.2020 N.2      11   G11      -0.6323
    342 C4         27.3970   39.6630   10.9990 C.ar     11   G11       0.1222
    343 H5'        24.7336   37.3237    6.1258 H        11   G11       0.0679
    344 H5''       26.0760   37.0905    4.9860 H        11   G11       0.0679
    345 H4'        26.1412   39.3420    5.8363 H        11   G11       0.1174
    346 H3'        28.3081   37.5978    7.0344 H        11   G11       0.0615
    347 H2'        29.1315   39.5971    8.0723 H        11   G11       0.0972
    348 H1'        26.6092   40.6421    8.6502 H        11   G11       0.2006
    349 H8         27.1635   36.9099    9.3228 H        11   G11       0.1640
    350 H1         27.8240   40.7121   14.4390 H        11   G11       0.3424
    351 H21        27.7290   42.8348   13.8468 H        11   G11       0.4364
    352 H22        27.5268   43.3350   12.1827 H        11   G11       0.4364
    353 HO2'       27.7854   41.6255    7.4201 H        11   G11       0.4186
    354 P          29.7940   37.9720    4.7830 P.3      12   G12       1.1662
    355 OP1        29.7370   37.8960    3.3000 O.co2    12   G12      -0.7760
    356 OP2        30.0060   36.7250    5.5810 O.co2    12   G12      -0.7760
    357 O5'        30.9210   39.0080    5.2010 O.3      12   G12      -0.4989
    358 C5'        30.9530   40.3160    4.6560 C.3      12   G12       0.0558
    359 C4'        31.8110   41.1750    5.5310 C.3      12   G12       0.1065
    360 O4'        31.2070   41.2030    6.8340 O.3      12   G12      -0.3548
    361 C3'        33.2040   40.6220    5.7730 C.3      12   G12       0.2022
    362 O3'        34.0820   41.0950    4.7540 O.3      12   G12      -0.5246
    363 C2'        33.5490   41.1910    7.1570 C.3      12   G12       0.0670
    364 O2'        34.0660   42.5110    7.1030 O.3      12   G12      -0.6139
    365 C1'        32.1890   41.2050    7.8470 C.3      12   G12       0.0191
    366 N9         31.9410   40.0670    8.7230 N.ar     12   G12       0.0492
    367 C8         31.9300   38.7440    8.3710 C.ar     12   G12       0.1374
    368 N7         31.7340   37.9370    9.3750 N.ar     12   G12      -0.5709
    369 C5         31.4820   38.7770   10.4420 C.ar     12   G12       0.1744
    370 C6         31.1570   38.4660   11.7860 C.2      12   G12       0.4770
    371 O6         30.9850   37.3490   12.2860 O.2      12   G12      -0.5597
    372 N1         31.0890   39.6120   12.5880 N.am     12   G12      -0.4787
    373 C2         31.1940   40.9100   12.1090 C.2      12   G12       0.7657
    374 N2         31.0180   41.8950   13.0110 N.pl3    12   G12      -0.9672
    375 N3         31.4420   41.2170   10.8320 N.2      12   G12      -0.6323
    376 C4         31.6040   40.1010   10.0630 C.ar     12   G12       0.1222
    377 H5'        31.3701   40.2845    3.6495 H        12   G12       0.0679
    378 H5''       29.9424   40.7230    4.6210 H        12   G12       0.0679
    379 H4'        31.8725   42.1840    5.1233 H        12   G12       0.1174
    380 H3'        33.1891   39.5323    5.7955 H        12   G12       0.0615
    381 H2'        34.2387   40.5302    7.6822 H        12   G12       0.0972
    382 H1'        32.0965   42.1235    8.4266 H        12   G12       0.2006
    383 H8         32.0706   38.4014    7.3565 H        12   G12       0.1640
    384 H1         30.9546   39.4853   13.5810 H        12   G12       0.3424
    385 H21        30.8261   41.6676   13.9762 H        12   G12       0.4364
    386 H22        31.0780   42.8609   12.7221 H        12   G12       0.4364
    387 HO2'       35.0015   42.4795    6.8898 H        12   G12       0.4186
    388 P          35.3550   40.2530    4.2790 P.3      13   C13       1.1662
    389 OP1        35.5950   40.5980    2.8590 O.co2    13   C13      -0.7760
    390 OP2        35.1750   38.8350    4.6780 O.co2    13   C13      -0.7760
    391 O5'        36.5240   40.8560    5.1570 O.3      13   C13      -0.4989
    392 C5'        37.8140   40.3520    5.0380 C.3      13   C13       0.0558
    393 C4'        38.8160   41.4140    5.3970 C.3      13   C13       0.1065
    394 O4'        38.6580   41.7690    6.7710 O.3      13   C13      -0.3548
    395 C3'        40.2360   40.9690    5.3190 C.3      13   C13       0.2022
    396 O3'        40.6980   41.0750    4.0010 O.3      13   C13      -0.5246
    397 C2'        40.9580   41.9200    6.2910 C.3      13   C13       0.0670
    398 O2'        41.5470   43.0340    5.6660 O.3      13   C13      -0.6139
    399 C1'        39.8420   42.3910    7.2060 C.3      13   C13       0.0066
    400 N1         40.0620   42.1070    8.6590 N.am     13   C13      -0.0484
    401 C2         40.8710   42.9720    9.4340 C.2      13   C13       0.7538
    402 O2         41.4560   43.9280    8.8810 O.2      13   C13      -0.6252
    403 N3         40.9970   42.7190   10.7840 N.2      13   C13      -0.7584
    404 C4         40.3880   41.6470   11.3310 C.2      13   C13       0.8185
    405 N4         40.5330   41.4330   12.6390 N.pl3    13   C13      -0.9530
    406 C5         39.5860   40.7590   10.5520 C.2      13   C13      -0.5215
    407 C6         39.4430   41.0270    9.2430 C.2      13   C13       0.0053
    408 H5'        37.9327   39.5020    5.7099 H        13   C13       0.0679
    409 H5''       37.9825   40.0278    4.0111 H        13   C13       0.0679
    410 H4'        38.6675   42.2917    4.7679 H        13   C13       0.1174
    411 H3'        40.3257   39.9396    5.6659 H        13   C13       0.0615
    412 H2'        41.7065   41.3727    6.8640 H        13   C13       0.0972
    413 H1'        39.7286   43.4679    7.0811 H        13   C13       0.2029
    414 H5         39.1097   39.8996   11.0003 H        13   C13       0.1928
    415 H6         38.8279   40.3794    8.6359 H        13   C13       0.1958
    416 H41        41.0941   42.0628   13.1946 H        13   C13       0.4234
    417 H42        40.0818   40.6411   13.0742 H        13   C13       0.4234
    418 HO2'       41.5832   43.7668    6.2851 H        13   C13       0.4186
    419 P          41.8440   40.0870    3.4620 P.3      14   A14       1.1662
    420 OP1        41.3230   38.7140    3.5070 O.co2    14   A14      -0.7760
    421 OP2        43.1330   40.4220    4.1480 O.co2    14   A14      -0.7760
    422 O5'        41.9550   40.5450    1.9460 O.3      14   A14      -0.4989
    423 C5'        40.8270   40.4560    1.1130 C.3      14   A14       0.0558
    424 C4'        40.7550   41.6300    0.1700 C.3      14   A14       0.1065
    425 O4'        40.0950   42.7520    0.8000 O.3      14   A14      -0.3548
    426 C3'        42.0690   42.2210   -0.2870 C.3      14   A14       0.2022
    427 O3'        42.6580   41.4230   -1.2320 O.3      14   A14      -0.5246
    428 C2'        41.5870   43.5300   -0.8860 C.3      14   A14       0.0670
    429 O2'        40.9970   43.3620   -2.1770 O.3      14   A14      -0.6139
    430 C1'        40.5400   43.9550    0.1580 C.3      14   A14       0.0394
    431 N9         41.1020   44.8390    1.1880 N.ar     14   A14      -0.0251
    432 C8         41.3340   44.5290    2.4990 C.ar     14   A14       0.2006
    433 N7         41.8900   45.4930    3.1820 N.ar     14   A14      -0.6073
    434 C5         42.0500   46.5090    2.2610 C.ar     14   A14       0.0515
    435 C6         42.6070   47.7990    2.3620 C.ar     14   A14       0.7009
    436 N6         43.1450   48.2800    3.4830 N.pl3    14   A14      -0.9019
    437 N1         42.6430   48.5540    1.2530 N.ar     14   A14      -0.7615
    438 C2         42.1560   48.0460    0.1070 C.ar     14   A14       0.5875
    439 N3         41.6060   46.8500   -0.1150 N.ar     14   A14      -0.6997
    440 C4         41.5850   46.1210    1.0190 C.ar     14   A14       0.3053
    441 H5'        40.8855   39.5357    0.5318 H        14   A14       0.0679
    442 H5''       39.9276   40.4348    1.7284 H        14   A14       0.0679
    443 H4'        40.1807   41.3364   -0.7087 H        14   A14       0.1174
    444 H3'        42.7381   42.3950    0.5557 H        14   A14       0.0615
    445 H2'        42.4007   44.2540   -0.9285 H        14   A14       0.0972
    446 H1'        39.7008   44.4454   -0.3353 H        14   A14       0.2007
    447 H8         41.0801   43.5723    2.9312 H        14   A14       0.1553
    448 H2         42.2185   48.6959   -0.7533 H        14   A14       0.0473
    449 H61        43.1306   49.2892    3.4446 H        14   A14       0.4115
    450 H62        42.9952   48.2142    4.4797 H        14   A14       0.4115
    451 HO2'       41.6723   43.0975   -2.8060 H        14   A14       0.4186
    452 P          44.2190   41.1860   -1.1700 P.3      15   G15       1.1662
    453 OP1        44.6400   40.5190   -2.4220 O.co2    15   G15      -0.7760
    454 OP2        44.5290   40.5540    0.1300 O.co2    15   G15      -0.7760
    455 O5'        44.8110   42.6670   -1.1190 O.3      15   G15      -0.4989
    456 C5'        44.9320   43.4530   -2.2930 C.3      15   G15       0.0558
    457 C4'        45.6250   44.7700   -1.9930 C.3      15   G15       0.1065
    458 O4'        44.8140   45.5810   -1.0890 O.3      15   G15      -0.3548
    459 C3'        46.9360   44.6420   -1.2720 C.3      15   G15       0.2022
    460 O3'        47.9620   44.3040   -2.1620 O.3      15   G15      -0.5246
    461 C2'        47.0860   46.0310   -0.6660 C.3      15   G15       0.0670
    462 O2'        47.4650   47.0010   -1.6130 O.3      15   G15      -0.6139
    463 C1'        45.6650   46.2780   -0.1890 C.3      15   G15       0.0191
    464 N9         45.4200   45.7960    1.1760 N.ar     15   G15       0.0492
    465 C8         44.9180   44.5680    1.5700 C.ar     15   G15       0.1374
    466 N7         44.8260   44.4340    2.8720 N.ar     15   G15      -0.5709
    467 C5         45.3530   45.6250    3.3710 C.ar     15   G15       0.1744
    468 C6         45.5210   46.0800    4.7140 C.2      15   G15       0.4770
    469 O6         45.2170   45.5070    5.7760 O.2      15   G15      -0.5597
    470 N1         46.0800   47.3590    4.7590 N.am     15   G15      -0.4787
    471 C2         46.4380   48.1070    3.6590 C.2      15   G15       0.7657
    472 N2         46.9630   49.3170    3.8980 N.pl3    15   G15      -0.9672
    473 N3         46.3090   47.6880    2.4110 N.2      15   G15      -0.6323
    474 C4         45.7470   46.4530    2.3370 C.ar     15   G15       0.1222
    475 H5'        45.5148   42.9033   -3.0321 H        15   G15       0.0679
    476 H5''       43.9389   43.6531   -2.6952 H        15   G15       0.0679
    477 H4'        45.7789   45.3152   -2.9242 H        15   G15       0.1174
    478 H3'        46.8602   43.8935   -0.4833 H        15   G15       0.0615
    479 H2'        47.7807   46.0156    0.1738 H        15   G15       0.0972
    480 H1'        45.4476   47.3449   -0.2396 H        15   G15       0.2006
    481 H8         44.6298   43.7948    0.8732 H        15   G15       0.1640
    482 H1         46.2339   47.7677    5.6697 H        15   G15       0.3424
    483 H21        47.0719   49.6415    4.8482 H        15   G15       0.4364
    484 H22        47.2497   49.9042    3.1278 H        15   G15       0.4364
    485 HO2'       48.3639   46.8309   -1.9038 H        15   G15       0.4186
    486 P          49.2880   43.6160   -1.5960 P.3      16   G16       1.1662
    487 OP1        50.3290   43.7070   -2.6510 O.co2    16   G16      -0.7760
    488 OP2        48.9320   42.3030   -1.0030 O.co2    16   G16      -0.7760
    489 O5'        49.6160   44.6150   -0.4110 O.3      16   G16      -0.4989
    490 C5'        50.6660   44.4360    0.4470 C.3      16   G16       0.0558
    491 C4'        50.8440   45.7250    1.1990 C.3      16   G16       0.1065
    492 O4'        49.5680   46.1660    1.7430 O.3      16   G16      -0.3548
    493 C3'        51.7540   45.6580    2.3820 C.3      16   G16       0.2022
    494 O3'        53.0650   45.7870    1.9650 O.3      16   G16      -0.5246
    495 C2'        51.2780   46.8720    3.1760 C.3      16   G16       0.0670
    496 O2'        51.6970   48.0960    2.5970 O.3      16   G16      -0.6139
    497 C1'        49.7700   46.7100    3.0370 C.3      16   G16       0.0191
    498 N9         49.1830   45.7990    4.0340 N.ar     16   G16       0.0492
    499 C8         48.5080   44.6190    3.7980 C.ar     16   G16       0.1374
    500 N7         48.0870   44.0290    4.8820 N.ar     16   G16      -0.5709
    501 C5         48.5370   44.8550    5.9140 C.ar     16   G16       0.1744
    502 C6         48.3910   44.7370    7.3360 C.2      16   G16       0.4770
    503 O6         47.8010   43.8460    7.9910 O.2      16   G16      -0.5597
    504 N1         48.9740   45.8190    8.0040 N.am     16   G16      -0.4787
    505 C2         49.6110   46.8730    7.3850 C.2      16   G16       0.7657
    506 N2         50.1200   47.8160    8.1800 N.pl3    16   G16      -0.9672
    507 N3         49.7430   46.9950    6.0750 N.2      16   G16      -0.6323
    508 C4         49.2030   45.9500    5.4020 C.ar     16   G16       0.1222
    509 H5'        51.5712   44.2016   -0.1132 H        16   G16       0.0679
    510 H5''       50.4417   43.6283    1.1438 H        16   G16       0.0679
    511 H4'        51.2154   46.4852    0.5117 H        16   G16       0.1174
    512 H3'        51.6062   44.7353    2.9432 H        16   G16       0.0615
    513 H2'        51.5861   46.8048    4.2194 H        16   G16       0.0972
    514 H1'        49.2888   47.6857    3.1037 H        16   G16       0.2006
    515 H8         48.3436   44.2210    2.8076 H        16   G16       0.1640
    516 H1         48.9246   45.8286    9.0127 H        16   G16       0.3424
    517 H21        50.0273   47.7354    9.1825 H        16   G16       0.4364
    518 H22        50.5980   48.6104    7.7793 H        16   G16       0.4364
    519 HO2'       51.2609   48.8263    3.0420 H        16   G16       0.4186
    520 P          54.1980   44.9910    2.7270 P.3      17   G17       1.1662
    521 OP1        55.4600   45.1870    1.9660 O.co2    17   G17      -0.7760
    522 OP2        53.7120   43.6160    3.0000 O.co2    17   G17      -0.7760
    523 O5'        54.2870   45.7710    4.1260 O.3      17   G17      -0.4989
    524 C5'        54.6070   47.1650    4.1590 C.3      17   G17       0.0558
    525 C4'        54.9320   47.6170    5.5660 C.3      17   G17       0.1065
    526 O4'        53.7110   47.7730    6.3310 O.3      17   G17      -0.3548
    527 C3'        55.7830   46.6560    6.3770 C.3      17   G17       0.2022
    528 O3'        57.1740   46.9070    6.1270 O.3      17   G17      -0.5246
    529 C2'        55.3840   47.0330    7.7950 C.3      17   G17       0.0670
    530 O2'        56.0050   48.2240    8.2140 O.3      17   G17      -0.6139
    531 C1'        53.9000   47.2720    7.6410 C.3      17   G17       0.0191
    532 N9         53.0650   46.0750    7.8520 N.ar     17   G17       0.0492
    533 C8         52.5100   45.2710    6.8910 C.ar     17   G17       0.1374
    534 N7         51.7770   44.3080    7.3700 N.ar     17   G17      -0.5709
    535 C5         51.8740   44.4580    8.7430 C.ar     17   G17       0.1744
    536 C6         51.2610   43.7180    9.7890 C.2      17   G17       0.4770
    537 O6         50.5260   42.7250    9.7090 O.2      17   G17      -0.5597
    538 N1         51.5790   44.2290   11.0340 N.am     17   G17      -0.4787
    539 C2         52.4280   45.2860   11.2610 C.2      17   G17       0.7657
    540 N2         52.6080   45.6300   12.5450 N.pl3    17   G17      -0.9672
    541 N3         52.9880   46.0090   10.2930 N.2      17   G17      -0.6323
    542 C4         52.6550   45.5470    9.0590 C.ar     17   G17       0.1222
    543 H5'        55.4700   47.3471    3.5186 H        17   G17       0.0679
    544 H5''       53.7571   47.7367    3.7862 H        17   G17       0.0679
    545 H4'        55.4405   48.5799    5.5165 H        17   G17       0.1174
    546 H3'        55.5244   45.6201    6.1576 H        17   G17       0.0615
    547 H2'        55.5826   46.2180    8.4910 H        17   G17       0.0972
    548 H1'        53.5954   48.0384    8.3537 H        17   G17       0.2006
    549 H8         52.6665   45.4225    5.8332 H        17   G17       0.1640
    550 H1         51.1544   43.7915   11.8392 H        17   G17       0.3424
    551 H21        52.1574   45.1008   13.2778 H        17   G17       0.4364
    552 H22        53.1943   46.4184   12.7790 H        17   G17       0.4364
    553 HO2'       55.6344   48.4988    9.0559 H        17   G17       0.4186
    554 P          58.2750   45.7860    6.4290 P.3      18   U18       1.1662
    555 OP1        59.6070   46.3910    6.1950 O.co2    18   U18      -0.7760
    556 OP2        57.8890   44.5410    5.7210 O.co2    18   U18      -0.7760
    557 O5'        58.0890   45.5120    7.9910 O.3      18   U18      -0.4989
    558 C5'        58.7030   46.3430    8.9590 C.3      18   U18       0.0558
    559 C4'        58.4580   45.7900   10.3440 C.3      18   U18       0.1065
    560 O4'        57.0320   45.6990   10.5870 O.3      18   U18      -0.3548
    561 C3'        58.9260   44.3690   10.5570 C.3      18   U18       0.2022
    562 O3'        60.2970   44.3290   10.7660 O.3      18   U18      -0.5246
    563 C2'        58.1320   43.9880   11.8020 C.3      18   U18       0.0670
    564 O2'        58.6770   44.5060   13.0020 O.3      18   U18      -0.6139
    565 C1'        56.7850   44.6440   11.5120 C.3      18   U18       0.0674
    566 N1         55.7790   43.6820   10.9470 N.am     18   U18       0.0418
    567 C2         55.0670   42.8610   11.8130 C.2      18   U18       0.4687
    568 O2         55.1690   42.9090   13.0150 O.2      18   U18      -0.5477
    569 N3         54.2140   41.9700   11.2040 N.am     18   U18      -0.3549
    570 C4         53.9950   41.8200    9.8470 C.2      18   U18       0.5952
    571 O4         53.1840   41.0020    9.4630 O.2      18   U18      -0.5761
    572 C5         54.7750   42.6900    9.0020 C.2      18   U18      -0.3635
    573 C6         55.6290   43.5630    9.5690 C.2      18   U18      -0.1126
    574 H5'        59.7759   46.3840    8.7713 H        18   U18       0.0679
    575 H5''       58.2851   47.3474    8.8912 H        18   U18       0.0679
    576 H4'        58.9163   46.4430   11.0867 H        18   U18       0.1174
    577 H3'        58.6456   43.7394    9.7125 H        18   U18       0.0615
    578 H2'        58.0228   42.9055   11.8685 H        18   U18       0.0972
    579 H1'        56.3907   45.0675   12.4357 H        18   U18       0.1824
    580 H3         53.6907   41.3589   11.8146 H        18   U18       0.3154
    581 H5         54.6754   42.6420    7.9277 H        18   U18       0.1811
    582 H6         56.2224   44.1974    8.9272 H        18   U18       0.2188
    583 HO2'       59.5235   44.0879   13.1762 H        18   U18       0.4186
    584 P          61.2110   43.2640    9.9740 P.3      19   G19       1.1662
    585 OP1        62.6470   43.6310   10.2150 O.co2    19   G19      -0.7760
    586 OP2        60.7070   43.1590    8.5830 O.co2    19   G19      -0.7760
    587 O5'        60.8980   41.8760   10.7220 O.3      19   G19      -0.4989
    588 C5'        61.1760   41.7460   12.1180 C.3      19   G19       0.0558
    589 C4'        60.2570   40.7390   12.7760 C.3      19   G19       0.1065
    590 O4'        58.8610   41.0970   12.5540 O.3      19   G19      -0.3548
    591 C3'        60.3450   39.3480   12.2190 C.3      19   G19       0.2022
    592 O3'        61.5140   38.6900   12.6780 O.3      19   G19      -0.5246
    593 C2'        59.0510   38.7510   12.7570 C.3      19   G19       0.0670
    594 O2'        59.1150   38.4510   14.1390 O.3      19   G19      -0.6139
    595 C1'        58.0760   39.9150   12.5230 C.3      19   G19       0.0191
    596 N9         57.3580   39.8200   11.2340 N.ar     19   G19       0.0492
    597 C8         57.7780   40.2940   10.0070 C.ar     19   G19       0.1374
    598 N7         57.0150   39.9390    9.0100 N.ar     19   G19      -0.5709
    599 C5         56.0170   39.1690    9.5940 C.ar     19   G19       0.1744
    600 C6         54.8840   38.5100    9.0020 C.2      19   G19       0.4770
    601 O6         54.5130   38.4970    7.7940 O.2      19   G19      -0.5597
    602 N1         54.1320   37.8330    9.9660 N.am     19   G19      -0.4787
    603 C2         54.4230   37.7910   11.3190 C.2      19   G19       0.7657
    604 N2         53.5570   37.1060   12.0800 N.pl3    19   G19      -0.9672
    605 N3         55.4470   38.4240   11.8880 N.2      19   G19      -0.6323
    606 C4         56.2120   39.0780   10.9690 C.ar     19   G19       0.1222
    607 H5'        62.2080   41.4188   12.2444 H        19   G19       0.0679
    608 H5''       61.0471   42.7153   12.5996 H        19   G19       0.0679
    609 H4'        60.4574   40.7127   13.8471 H        19   G19       0.1174
    610 H3'        60.3269   39.3736   11.1295 H        19   G19       0.0615
    611 H2'        58.7568   37.8739   12.1806 H        19   G19       0.0972
    612 H1'        57.3508   39.9445   13.3362 H        19   G19       0.2006
    613 H8         58.6602   40.9047    9.8835 H        19   G19       0.1640
    614 H1         53.3117   37.3352    9.6509 H        19   G19       0.3424
    615 H21        52.7666   36.6433   11.6542 H        19   G19       0.4364
    616 H22        53.6951   37.0528   13.0791 H        19   G19       0.4364
    617 HO2'       58.5136   37.7298   14.3386 H        19   G19       0.4186
    618 P          62.4220   37.8550   11.6340 P.3      20   A20       1.1662
    619 OP1        63.8270   37.8870   12.1180 O.co2    20   A20      -0.7760
    620 OP2        62.1060   38.3270   10.2590 O.co2    20   A20      -0.7760
    621 O5'        61.8520   36.3600   11.7930 O.3      20   A20      -0.4989
    622 C5'        61.9410   35.4250   10.7130 C.3      20   A20       0.0558
    623 C4'        61.1250   34.1760   11.0020 C.3      20   A20       0.1065
    624 O4'        61.4860   33.6470   12.3000 O.3      20   A20      -0.3548
    625 C3'        59.6450   34.4090   11.0820 C.3      20   A20       0.2022
    626 O3'        59.0530   34.3560    9.7820 O.3      20   A20      -0.5246
    627 C2'        59.1650   33.2940   12.0240 C.3      20   A20       0.0670
    628 O2'        58.8990   32.0600   11.3660 O.3      20   A20      -0.6139
    629 C1'        60.3410   33.1640   12.9850 C.3      20   A20       0.0394
    630 N9         60.2030   33.9220   14.2410 N.ar     20   A20      -0.0251
    631 C8         60.7850   35.1330   14.5370 C.ar     20   A20       0.2006
    632 N7         60.5890   35.5450   15.7720 N.ar     20   A20      -0.6073
    633 C5         59.8290   34.5370   16.3410 C.ar     20   A20       0.0515
    634 C6         59.2870   34.3710   17.6480 C.ar     20   A20       0.7009
    635 N6         59.4720   35.2680   18.6390 N.pl3    20   A20      -0.9019
    636 N1         58.5600   33.2390   17.8960 N.ar     20   A20      -0.7615
    637 C2         58.4010   32.3390   16.8980 C.ar     20   A20       0.5875
    638 N3         58.8600   32.3860   15.6280 N.ar     20   A20      -0.6997
    639 C4         59.5830   33.5160   15.4140 C.ar     20   A20       0.3053
    640 H5'        61.5639   35.8941    9.8042 H        20   A20       0.0679
    641 H5''       62.9842   35.1455   10.5658 H        20   A20       0.0679
    642 H4'        61.3308   33.4266   10.2377 H        20   A20       0.1174
    643 H3'        59.4503   35.3812   11.5347 H        20   A20       0.0615
    644 H2'        58.2785   33.6233   12.5660 H        20   A20       0.0972
    645 H1'        60.4891   32.1105   13.2222 H        20   A20       0.2007
    646 H8         61.3557   35.6991   13.8157 H        20   A20       0.1553
    647 H2         57.8269   31.4602   17.1522 H        20   A20       0.0473
    648 HO2'       57.9502   31.9255   11.3085 H        20   A20       0.4186
    649 H61        60.0113   36.1048   18.4686 H        20   A20       0.4115
    650 H62        59.0711   35.1026   19.5512 H        20   A20       0.4115
    651 P          57.8430   35.3470    9.4460 P.3      21   A21       1.1662
    652 OP1        57.4640   35.1600    8.0230 O.co2    21   A21      -0.7760
    653 OP2        58.2180   36.6970    9.9350 O.co2    21   A21      -0.7760
    654 O5'        56.6700   34.7730   10.3840 O.3      21   A21      -0.4989
    655 C5'        56.0760   33.4920   10.0850 C.3      21   A21       0.0558
    656 C4'        55.1890   32.9950   11.2170 C.3      21   A21       0.1065
    657 O4'        55.9620   32.9120   12.4300 O.3      21   A21      -0.3548
    658 C3'        54.0080   33.8850   11.5450 C.3      21   A21       0.2022
    659 O3'        52.8780   33.4850   10.7840 O.3      21   A21      -0.5246
    660 C2'        53.7960   33.6500   13.0380 C.3      21   A21       0.0670
    661 O2'        52.9290   32.5590   13.3180 O.3      21   A21      -0.6139
    662 C1'        55.2040   33.3590   13.5350 C.3      21   A21       0.0394
    663 N9         55.8770   34.5210   14.1100 N.ar     21   A21      -0.0251
    664 C8         56.6850   35.4180   13.4540 C.ar     21   A21       0.2006
    665 N7         57.2140   36.3300   14.2340 N.ar     21   A21      -0.6073
    666 C5         56.7170   36.0210   15.4920 C.ar     21   A21       0.0515
    667 C6         56.9100   36.6100   16.7670 C.ar     21   A21       0.7009
    668 N6         57.6330   37.7100   16.9630 N.pl3    21   A21      -0.9019
    669 N1         56.3040   36.0270   17.8310 N.ar     21   A21      -0.7615
    670 C2         55.5230   34.9480   17.6190 C.ar     21   A21       0.5875
    671 N3         55.2570   34.3120   16.4710 N.ar     21   A21      -0.6997
    672 C4         55.8850   34.9070   15.4330 C.ar     21   A21       0.3053
    673 H5'        55.4733   33.5863    9.1817 H        21   A21       0.0679
    674 H5''       56.8688   32.7649    9.9091 H        21   A21       0.0679
    675 H4'        54.8211   32.0003   10.9652 H        21   A21       0.1174
    676 H3'        54.2500   34.9301   11.3518 H        21   A21       0.0615
    677 H2'        53.4158   34.5574   13.5073 H        21   A21       0.0972
    678 H1'        55.1614   32.5662   14.2819 H        21   A21       0.2007
    679 H8         56.8682   35.3758   12.3905 H        21   A21       0.1553
    680 H2         55.0456   34.5401   18.4977 H        21   A21       0.0473
    681 H61        58.0847   38.1633   16.1816 H        21   A21       0.4115
    682 H62        57.7300   38.0915   17.8931 H        21   A21       0.4115
    683 HO2'       52.0467   32.7605   12.9977 H        21   A21       0.4186
    684 P          51.9630   34.5800   10.0630 P.3      22   A22       1.1662
    685 OP1        50.8130   33.8750    9.4280 O.co2    22   A22      -0.7760
    686 OP2        52.8490   35.4370    9.2400 O.co2    22   A22      -0.7760
    687 O5'        51.4230   35.4630   11.2890 O.3      22   A22      -0.4989
    688 C5'        50.4110   34.9360   12.1950 C.3      22   A22       0.0558
    689 C4'        49.6250   36.0610   12.8500 C.3      22   A22       0.1065
    690 O4'        50.5260   36.9540   13.5040 O.3      22   A22      -0.3548
    691 C3'        48.8610   36.9450   11.8870 C.3      22   A22       0.2022
    692 O3'        47.5450   36.4770   11.7740 O.3      22   A22      -0.5246
    693 C2'        48.9440   38.3590   12.5210 C.3      22   A22       0.0670
    694 O2'        47.6920   38.8720   12.9580 O.3      22   A22      -0.6139
    695 C1'        49.8610   38.1560   13.7140 C.3      22   A22       0.0394
    696 N9         50.8520   39.2120   13.8850 N.ar     22   A22      -0.0251
    697 C8         51.6870   39.7390   12.9320 C.ar     22   A22       0.2006
    698 N7         52.4340   40.7160   13.3700 N.ar     22   A22      -0.6073
    699 C5         52.0660   40.8420   14.7050 C.ar     22   A22       0.0515
    700 C6         52.4960   41.7070   15.7440 C.ar     22   A22       0.7009
    701 N6         53.4600   42.6240   15.5890 N.pl3    22   A22      -0.9019
    702 N1         51.9280   41.5580   16.9650 N.ar     22   A22      -0.7615
    703 C2         50.9780   40.6280   17.1330 C.ar     22   A22       0.5875
    704 N3         50.5030   39.7550   16.2480 N.ar     22   A22      -0.6997
    705 C4         51.1100   39.9060   15.0420 C.ar     22   A22       0.3053
    706 H5'        49.7248   34.3027   11.6327 H        22   A22       0.0679
    707 H5''       50.8968   34.3406   12.9680 H        22   A22       0.0679
    708 H4'        48.9349   35.6420   13.5824 H        22   A22       0.1174
    709 H3'        49.3453   36.9426   10.9105 H        22   A22       0.0615
    710 H2'        49.4022   39.0533   11.8167 H        22   A22       0.0972
    711 H1'        49.2592   38.0792   14.6196 H        22   A22       0.2007
    712 H8         51.7229   39.3790   11.9144 H        22   A22       0.1553
    713 H2         50.5390   40.5806   18.1186 H        22   A22       0.0473
    714 HO2'       47.3460   39.4777   12.2984 H        22   A22       0.4186
    715 H61        53.9167   42.3376   14.7349 H        22   A22       0.4115
    716 H62        53.6776   43.4115   16.1828 H        22   A22       0.4115
    717 P          47.1040   35.5500   10.5510 P.3      23   U23       1.1662
    718 OP1        46.4400   34.3420   11.1030 O.co2    23   U23      -0.7760
    719 OP2        48.2620   35.3900    9.6100 O.co2    23   U23      -0.7760
    720 O5'        46.0010   36.4560    9.8420 O.3      23   U23      -0.4989
    721 C5'        46.3740   37.7130    9.2690 C.3      23   U23       0.0558
    722 C4'        45.1840   38.6550    9.1900 C.3      23   U23       0.1065
    723 O4'        44.2680   38.2120    8.1520 O.3      23   U23      -0.3548
    724 C3'        44.3690   38.7800   10.4780 C.3      23   U23       0.2022
    725 O3'        44.1170   40.1450   10.7360 O.3      23   U23      -0.5246
    726 C2'        43.0980   37.9790   10.1570 C.3      23   U23       0.0670
    727 O2'        41.9590   38.4430   10.8160 O.3      23   U23      -0.6139
    728 C1'        42.9540   38.1790    8.6550 C.3      23   U23       0.0674
    729 N1         42.1930   37.0700    7.9790 N.am     23   U23       0.0418
    730 C2         40.9440   37.3390    7.4430 C.2      23   U23       0.4687
    731 O2         40.4580   38.4470    7.4070 O.2      23   U23      -0.5477
    732 N3         40.2620   36.2410    6.9670 N.am     23   U23      -0.3549
    733 C4         40.7090   34.9220    6.9670 C.2      23   U23       0.5952
    734 O4         40.0110   34.0470    6.4680 O.2      23   U23      -0.5761
    735 C5         42.0160   34.7200    7.5510 C.2      23   U23      -0.3635
    736 C6         42.6860   35.7740    8.0270 C.2      23   U23      -0.1126
    737 H5'        46.7615   37.5447    8.2642 H        23   U23       0.0679
    738 H5''       47.1519   38.1691    9.8813 H        23   U23       0.0679
    739 H4'        45.5506   39.6456    8.9211 H        23   U23       0.1174
    740 H3'        44.9040   38.3271   11.3127 H        23   U23       0.0615
    741 H2'        43.2550   36.9237   10.3801 H        23   U23       0.0972
    742 H1'        42.4631   39.1321    8.4584 H        23   U23       0.1824
    743 H3         39.3450   36.4095    6.5787 H        23   U23       0.3154
    744 H5         42.4454   33.7303    7.6020 H        23   U23       0.1811
    745 H6         43.6571   35.6091    8.4699 H        23   U23       0.2188
    746 HO2'       42.0603   38.3122   11.7616 H        23   U23       0.4186
    747 P          45.1360   41.0060   11.6250 P.3      24   U24       1.1662
    748 OP1        44.7090   42.4250   11.5650 O.co2    24   U24      -0.7760
    749 OP2        46.5340   40.6460   11.2650 O.co2    24   U24      -0.7760
    750 O5'        44.8670   40.4430   13.0860 O.3      24   U24      -0.4989
    751 C5'        43.6020   40.5970   13.6640 C.3      24   U24       0.0558
    752 C4'        43.6660   40.3130   15.1310 C.3      24   U24       0.1065
    753 O4'        43.8520   38.8910   15.3430 O.3      24   U24      -0.3548
    754 C3'        44.7960   41.0260   15.8800 C.3      24   U24       0.2022
    755 O3'        44.2620   41.6840   17.0240 O.3      24   U24      -0.5246
    756 C2'        45.7310   39.8910   16.2820 C.3      24   U24       0.0670
    757 O2'        46.3740   40.1450   17.5160 O.3      24   U24      -0.6139
    758 C1'        44.7620   38.7090   16.3930 C.3      24   U24       0.0674
    759 N1         45.4240   37.3660   16.2440 N.am     24   U24       0.0418
    760 C2         45.6840   36.6020   17.3820 C.2      24   U24       0.4687
    761 O2         45.3320   36.9230   18.5040 O.2      24   U24      -0.5477
    762 N3         46.3300   35.4110   17.1470 N.am     24   U24      -0.3549
    763 C4         46.7740   34.9280   15.9270 C.2      24   U24       0.5952
    764 O4         47.4170   33.8730   15.8840 O.2      24   U24      -0.5761
    765 C5         46.4370   35.7580   14.7850 C.2      24   U24      -0.3635
    766 C6         45.8330   36.9400   14.9870 C.2      24   U24      -0.1126
    767 H5'        42.9046   39.9040   13.1934 H        24   U24       0.0679
    768 H5''       43.2559   41.6189   13.5087 H        24   U24       0.0679
    769 H4'        42.7171   40.6065   15.5799 H        24   U24       0.1174
    770 H3'        45.3058   41.7353   15.2279 H        24   U24       0.0615
    771 H2'        46.4671   39.7082   15.4992 H        24   U24       0.0972
    772 H1'        44.2357   38.7546   17.3464 H        24   U24       0.1824
    773 H3         46.4992   34.8245   17.9517 H        24   U24       0.3154
    774 H5         46.6696   35.4283   13.7832 H        24   U24       0.1811
    775 H6         45.6583   37.5849   14.1385 H        24   U24       0.2188
    776 HO2'       46.9304   40.9229   17.4325 H        24   U24       0.4186
    777 P          44.3600   43.2680   17.1840 P.3      25   C25       1.1662
    778 OP1        43.5780   43.6460   18.3980 O.co2    25   C25      -0.7760
    779 OP2        44.0530   43.8890   15.8760 O.co2    25   C25      -0.7760
    780 O5'        45.9080   43.4920   17.4630 O.3      25   C25      -0.4989
    781 C5'        46.3890   43.7620   18.7690 C.3      25   C25       0.0558
    782 C4'        47.7650   44.3920   18.6950 C.3      25   C25       0.1065
    783 O4'        48.7080   43.4340   18.1400 O.3      25   C25      -0.3548
    784 C3'        47.8570   45.5960   17.7760 C.3      25   C25       0.2022
    785 O3'        47.4840   46.7690   18.4560 O.3      25   C25      -0.5246
    786 C2'        49.3280   45.5970   17.3840 C.3      25   C25       0.0670
    787 O2'        50.1670   46.1700   18.3780 O.3      25   C25      -0.6139
    788 C1'        49.6010   44.1000   17.2460 C.3      25   C25       0.0066
    789 N1         49.4030   43.5630   15.8290 N.am     25   C25      -0.0484
    790 C2         50.2940   43.9460   14.7680 C.2      25   C25       0.7538
    791 O2         51.2270   44.7390   14.9940 O.2      25   C25      -0.6252
    792 N3         50.0910   43.4240   13.5130 N.2      25   C25      -0.7584
    793 C4         49.0860   42.5630   13.3020 C.2      25   C25       0.8185
    794 N4         48.9130   42.0940   12.0730 N.pl3    25   C25      -0.9530
    795 C5         48.2010   42.1510   14.3560 C.2      25   C25      -0.5215
    796 C6         48.3830   42.6780   15.5810 C.2      25   C25       0.0053
    797 H5'        45.7053   44.4467   19.2709 H        25   C25       0.0679
    798 H5''       46.4472   42.8309   19.3328 H        25   C25       0.0679
    799 H4'        48.0865   44.6767   19.6969 H        25   C25       0.1174
    800 H3'        47.2297   45.4512   16.8964 H        25   C25       0.0615
    801 H2'        49.4686   46.1011   16.4279 H        25   C25       0.0972
    802 H1'        50.6258   43.8992   17.5582 H        25   C25       0.2029
    803 H5         47.4113   41.4380   14.1705 H        25   C25       0.1928
    804 H6         47.7151   42.3999   16.3828 H        25   C25       0.1958
    805 H41        49.5319   42.3849   11.3297 H        25   C25       0.4234
    806 H42        48.1624   41.4461   11.8807 H        25   C25       0.4234
    807 HO2'       49.9821   47.1092   18.4509 H        25   C25       0.4186
    808 P          46.7320   47.9330   17.6680 P.3      26   C26       1.1662
    809 OP1        46.5880   49.0870   18.5840 O.co2    26   C26      -0.7760
    810 OP2        45.5340   47.3630   17.0080 O.co2    26   C26      -0.7760
    811 O5'        47.7780   48.3000   16.5260 O.3      26   C26      -0.4989
    812 C5'        48.8870   49.1360   16.8040 C.3      26   C26       0.0558
    813 C4'        49.5560   49.5450   15.5220 C.3      26   C26       0.1065
    814 O4'        50.1190   48.3670   14.8870 O.3      26   C26      -0.3548
    815 C3'        48.6160   50.0830   14.4700 C.3      26   C26       0.2022
    816 O3'        48.2520   51.4240   14.7210 O.3      26   C26      -0.5246
    817 C2'        49.4560   49.9070   13.2090 C.3      26   C26       0.0670
    818 O2'        50.4620   50.8940   13.0720 O.3      26   C26      -0.6139
    819 C1'        50.0840   48.5340   13.4700 C.3      26   C26       0.0066
    820 N1         49.3200   47.3820   12.8140 N.am     26   C26      -0.0484
    821 C2         49.5590   47.0600   11.4610 C.2      26   C26       0.7538
    822 O2         50.4450   47.6380   10.8530 O.2      26   C26      -0.6252
    823 N3         48.8350   46.0710   10.8750 N.2      26   C26      -0.7584
    824 C4         47.8910   45.4240   11.5750 C.2      26   C26       0.8185
    825 N4         47.2230   44.4330   10.9690 N.pl3    26   C26      -0.9530
    826 C5         47.6130   45.7540   12.9380 C.2      26   C26      -0.5215
    827 C6         48.3370   46.7300   13.5060 C.2      26   C26       0.0053
    828 H5'        48.5447   50.0258   17.3323 H        26   C26       0.0679
    829 H5''       49.5995   48.5964   17.4279 H        26   C26       0.0679
    830 H4'        50.3428   50.2712   15.7264 H        26   C26       0.1174
    831 H3'        47.7239   49.4592   14.4134 H        26   C26       0.0615
    832 H2'        48.8209   49.8784   12.3236 H        26   C26       0.0972
    833 H1'        51.1062   48.5378   13.0916 H        26   C26       0.2029
    834 H5         46.8452   45.2345   13.4922 H        26   C26       0.1928
    835 H6         48.1395   47.0067   14.5311 H        26   C26       0.1958
    836 H41        47.4297   44.1980   10.0087 H        26   C26       0.4234
    837 H42        46.5128   43.9210   11.4725 H        26   C26       0.4234
    838 HO2'       50.0536   51.7474   12.9091 H        26   C26       0.4186
    839 P          46.9400   52.0470   14.0100 P.3      27   C27       1.1662
    840 OP1        46.8130   53.4470   14.4940 O.co2    27   C27      -0.7760
    841 OP2        45.7910   51.0980   14.1530 O.co2    27   C27      -0.7760
    842 O5'        47.3320   52.0690   12.4390 O.3      27   C27      -0.4989
    843 C5'        47.9270   53.2180   11.8760 C.3      27   C27       0.0558
    844 C4'        48.0850   53.1010   10.3800 C.3      27   C27       0.1065
    845 O4'        48.6780   51.8290   10.0330 O.3      27   C27      -0.3548
    846 C3'        46.8110   53.1190    9.5680 C.3      27   C27       0.2022
    847 O3'        46.2740   54.4200    9.4610 O.3      27   C27      -0.5246
    848 C2'        47.3500   52.6290    8.2400 C.3      27   C27       0.0670
    849 O2'        48.0980   53.6280    7.5670 O.3      27   C27      -0.6139
    850 C1'        48.2650   51.4830    8.7040 C.3      27   C27       0.0066
    851 N1         47.5580   50.1160    8.7290 N.am     27   C27      -0.0484
    852 C2         47.3290   49.3870    7.5190 C.2      27   C27       0.7538
    853 O2         47.7490   49.8200    6.4450 O.2      27   C27      -0.6252
    854 N3         46.6550   48.2030    7.5880 N.2      27   C27      -0.7584
    855 C4         46.2090   47.7490    8.7680 C.2      27   C27       0.8185
    856 N4         45.5860   46.5820    8.7830 N.pl3    27   C27      -0.9530
    857 C5         46.4030   48.4630    9.9820 C.2      27   C27      -0.5215
    858 C6         47.0600   49.6290    9.9230 C.2      27   C27       0.0053
    859 H5'        47.3001   54.0820   12.0965 H        27   C27       0.0679
    860 H5''       48.9084   53.3669   12.3264 H        27   C27       0.0679
    861 H4'        48.7373   53.9013   10.0306 H        27   C27       0.1174
    862 H3'        46.0767   52.4234    9.9743 H        27   C27       0.0615
    863 H2'        46.5453   52.2532    7.6080 H        27   C27       0.0972
    864 H1'        49.1384   51.4290    8.0541 H        27   C27       0.2029
    865 H5         46.0329   48.0781   10.9208 H        27   C27       0.1928
    866 H6         47.2037   50.2009   10.8278 H        27   C27       0.1958
    867 H41        45.4536   46.0691    7.9230 H        27   C27       0.4234
    868 H42        45.2428   46.2040    9.6544 H        27   C27       0.4234
    869 HO2'       47.5105   54.3332    7.2857 H        27   C27       0.4186
    870 P          44.6730   54.6350    9.4930 P.3      28   G28       1.1662
    871 OP1        44.4070   56.0760    9.2170 O.co2    28   G28      -0.7760
    872 OP2        44.1280   54.0120   10.7320 O.co2    28   G28      -0.7760
    873 O5'        44.1350   53.7470    8.2620 O.3      28   G28      -0.4989
    874 C5'        44.1920   54.2070    6.9110 C.3      28   G28       0.0558
    875 C4'        43.8940   53.0580    5.9450 C.3      28   G28       0.1065
    876 O4'        44.6730   51.8780    6.3190 O.3      28   G28      -0.3548
    877 C3'        42.4520   52.5370    5.9240 C.3      28   G28       0.2022
    878 O3'        41.6000   53.3320    5.0810 O.3      28   G28      -0.5246
    879 C2'        42.6790   51.1610    5.3260 C.3      28   G28       0.0670
    880 O2'        42.9790   51.2130    3.9420 O.3      28   G28      -0.6139
    881 C1'        43.8940   50.7110    6.1020 C.3      28   G28       0.0191
    882 N9         43.5440   50.0900    7.3790 N.ar     28   G28       0.0492
    883 C8         43.5940   50.6620    8.6220 C.ar     28   G28       0.1374
    884 N7         43.2020   49.8630    9.5810 N.ar     28   G28      -0.5709
    885 C5         42.7780   48.7170    8.9220 C.ar     28   G28       0.1744
    886 C6         42.2530   47.5030    9.4420 C.2      28   G28       0.4770
    887 O6         42.0190   47.2110   10.6320 O.2      28   G28      -0.5597
    888 N1         42.0280   46.5630    8.4480 N.am     28   G28      -0.4787
    889 C2         42.2290   46.7730    7.1030 C.2      28   G28       0.7657
    890 N2         41.9140   45.7540    6.2850 N.pl3    28   G28      -0.9672
    891 N3         42.6990   47.9150    6.5920 N.2      28   G28      -0.6323
    892 C4         42.9750   48.8360    7.5650 C.ar     28   G28       0.1222
    893 H5'        43.4541   54.9965    6.7688 H        28   G28       0.0679
    894 H5''       45.1870   54.6019    6.7060 H        28   G28       0.0679
    895 H4'        44.1748   53.3620    4.9366 H        28   G28       0.1174
    896 H3'        42.0469   52.4638    6.9333 H        28   G28       0.0615
    897 H2'        41.8286   50.5065    5.5173 H        28   G28       0.0972
    898 H1'        44.4644   50.0030    5.5007 H        28   G28       0.2006
    899 H8         43.9252   51.6754    8.7943 H        28   G28       0.1640
    900 H1         41.6908   45.6546    8.7329 H        28   G28       0.3424
    901 H21        41.5549   44.8913    6.6682 H        28   G28       0.4364
    902 H22        42.0364   45.8510    5.2872 H        28   G28       0.4364
    903 HO2'       43.7993   51.6941    3.8105 H        28   G28       0.4186
    904 P          39.9950   53.2840    5.2680 P.3      29   A29       1.1662
    905 OP1        39.4040   54.1430    4.1990 O.co2    29   A29      -0.7760
    906 OP2        39.6780   53.5510    6.6970 O.co2    29   A29      -0.7760
    907 O5'        39.6050   51.7510    4.9800 O.3      29   A29      -0.4989
    908 C5'        39.6940   51.2340    3.6640 C.3      29   A29       0.0558
    909 C4'        39.3460   49.7580    3.6160 C.3      29   A29       0.1065
    910 O4'        40.1190   49.0220    4.5890 O.3      29   A29      -0.3548
    911 C3'        37.9250   49.4090    3.9740 C.3      29   A29       0.2022
    912 O3'        37.0260   49.7010    2.9050 O.3      29   A29      -0.5246
    913 C2'        38.0610   47.9130    4.2510 C.3      29   A29       0.0670
    914 O2'        38.1740   47.1130    3.0890 O.3      29   A29      -0.6139
    915 C1'        39.3690   47.8840    5.0060 C.3      29   A29       0.0394
    916 N9         39.1970   47.9120    6.4440 N.ar     29   A29      -0.0251
    917 C8         39.5120   48.9290    7.2890 C.ar     29   A29       0.2006
    918 N7         39.2970   48.6500    8.5550 N.ar     29   A29      -0.6073
    919 C5         38.8010   47.3550    8.5260 C.ar     29   A29       0.0515
    920 C6         38.4160   46.4590    9.5430 C.ar     29   A29       0.7009
    921 N6         38.4150   46.7800   10.8130 N.pl3    29   A29      -0.9019
    922 N1         37.9430   45.2530    9.1840 N.ar     29   A29      -0.7615
    923 C2         37.8920   44.9490    7.8770 C.ar     29   A29       0.5875
    924 N3         38.2200   45.7110    6.8320 N.ar     29   A29      -0.6997
    925 C4         38.6860   46.9060    7.2290 C.ar     29   A29       0.3053
    926 H5'        39.0030   51.7807    3.0224 H        29   A29       0.0679
    927 H5''       40.7099   51.3731    3.2942 H        29   A29       0.0679
    928 H4'        39.5671   49.3725    2.6207 H        29   A29       0.1174
    929 H3'        37.6218   49.9359    4.8787 H        29   A29       0.0615
    930 H2'        37.2443   47.5624    4.8820 H        29   A29       0.0972
    931 H1'        39.9151   46.9811    4.7327 H        29   A29       0.2007
    932 H8         39.9025   49.8777    6.9515 H        29   A29       0.1553
    933 H2         37.5387   43.9562    7.6404 H        29   A29       0.0473
    934 H61        38.1743   45.8773   11.1968 H        29   A29       0.4115
    935 H62        38.5989   47.6619   11.2696 H        29   A29       0.4115
    936 HO2'       37.3441   47.1293    2.6068 H        29   A29       0.4186
    937 P          35.5470   50.2450    3.2390 P.3      30   C30       1.1662
    938 OP1        34.8380   50.4860    1.9530 O.co2    30   C30      -0.7760
    939 OP2        35.6510   51.3340    4.2510 O.co2    30   C30      -0.7760
    940 O5'        34.8700   48.9980    3.9670 O.3      30   C30      -0.4989
    941 C5'        34.4930   47.8710    3.2090 C.3      30   C30       0.0558
    942 C4'        34.2340   46.6970    4.1130 C.3      30   C30       0.1065
    943 O4'        35.2380   46.6380    5.1340 O.3      30   C30      -0.3548
    944 C3'        32.9700   46.7670    4.9190 C.3      30   C30       0.2022
    945 O3'        31.8950   46.4730    4.1330 O.3      30   C30      -0.5246
    946 C2'        33.2560   45.6680    5.9430 C.3      30   C30       0.0670
    947 O2'        33.1530   44.3540    5.4070 O.3      30   C30      -0.6139
    948 C1'        34.7050   45.9540    6.2520 C.3      30   C30       0.0066
    949 N1         34.9160   46.7460    7.4910 N.am     30   C30      -0.0484
    950 C2         34.7840   46.1000    8.7330 C.2      30   C30       0.7538
    951 O2         34.4250   44.9090    8.7620 O.2      30   C30      -0.6252
    952 N3         35.0850   46.7920    9.8710 N.2      30   C30      -0.7584
    953 C4         35.4650   48.0670    9.8050 C.2      30   C30       0.8185
    954 N4         35.7480   48.6800   10.9560 N.pl3    30   C30      -0.9530
    955 C5         35.6100   48.7510    8.5530 C.2      30   C30      -0.5215
    956 C6         35.3250   48.0640    7.4300 C.2      30   C30       0.0053
    957 H5'        35.2949   47.6201    2.5147 H        30   C30       0.0679
    958 H5''       33.5877   48.1004    2.6470 H        30   C30       0.0679
    959 H4'        34.2477   45.7755    3.5310 H        30   C30       0.1174
    960 H3'        32.8577   47.7390    5.3994 H        30   C30       0.0615
    961 H2'        32.6329   45.7827    6.8300 H        30   C30       0.0972
    962 H1'        35.2291   45.0040    6.3568 H        30   C30       0.2029
    963 H5         35.9359   49.7798    8.5120 H        30   C30       0.1928
    964 H6         35.4174   48.5497    6.4698 H        30   C30       0.1958
    965 H41        35.6556   48.1817   11.8296 H        30   C30       0.4234
    966 H42        36.0546   49.6423   10.9535 H        30   C30       0.4234
    967 HO2'       33.3503   43.7118    6.0927 H        30   C30       0.4186
    968 P          30.4720   47.1010    4.4380 P.3      31   C31       1.1662
    969 OP1        29.6210   46.8680    3.2340 O.co2    31   C31      -0.7760
    970 OP2        30.6500   48.4790    4.9770 O.co2    31   C31      -0.7760
    971 O5'        29.9320   46.1900    5.6340 O.3      31   C31      -0.4989
    972 C5'        29.7420   44.8110    5.4200 C.3      31   C31       0.0558
    973 C4'        29.4480   44.1190    6.7130 C.3      31   C31       0.1065
    974 O4'        30.5620   44.2840    7.6090 O.3      31   C31      -0.3548
    975 C3'        28.3050   44.7010    7.4810 C.3      31   C31       0.2022
    976 O3'        27.1200   44.2500    6.9390 O.3      31   C31      -0.5246
    977 C2'        28.5710   44.1360    8.8680 C.3      31   C31       0.0670
    978 O2'        28.1840   42.7860    8.9760 O.3      31   C31      -0.6139
    979 C1'        30.0890   44.2250    8.9380 C.3      31   C31       0.0066
    980 N1         30.6390   45.3830    9.7310 N.am     31   C31      -0.0484
    981 C2         30.7480   45.2570   11.1210 C.2      31   C31       0.7538
    982 O2         30.3080   44.2410   11.6660 O.2      31   C31      -0.6252
    983 N3         31.3490   46.2560   11.8370 N.2      31   C31      -0.7584
    984 C4         31.8420   47.3350   11.2140 C.2      31   C31       0.8185
    985 N4         32.3850   48.2920   11.9760 N.pl3    31   C31      -0.9530
    986 C5         31.7540   47.4890    9.7890 C.2      31   C31      -0.5215
    987 C6         31.1690   46.4910    9.0900 C.2      31   C31       0.0053
    988 H5'        28.9055   44.6655    4.7365 H        31   C31       0.0679
    989 H5''       30.6447   44.3864    4.9808 H        31   C31       0.0679
    990 H4'        29.2714   43.0585    6.5334 H        31   C31       0.1174
    991 H3'        28.3470   45.7902    7.4847 H        31   C31       0.0615
    992 H2'        28.1024   44.7455    9.6406 H        31   C31       0.0972
    993 H1'        30.4599   43.3035    9.3867 H        31   C31       0.2029
    994 H5         32.1403   48.3682    9.2949 H        31   C31       0.1928
    995 H6         31.1138   46.5584    8.0135 H        31   C31       0.1958
    996 H41        32.4258   48.1769   12.9786 H        31   C31       0.4234
    997 H42        32.7540   49.1293   11.5484 H        31   C31       0.4234
    998 HO2'       27.6043   42.6784    9.7336 H        31   C31       0.4186
    999 P          25.8030   45.1440    7.0020 P.3      32   G32       1.1662
   1000 OP1        24.8240   44.5640    6.0440 O.co2    32   G32      -0.7760
   1001 OP2        26.1750   46.5780    6.8890 O.co2    32   G32      -0.7760
   1002 O5'        25.3160   44.9040    8.5080 O.3      32   G32      -0.4989
   1003 C5'        24.9190   43.6340    8.9690 C.3      32   G32       0.0558
   1004 C4'        24.5830   43.7180   10.4490 C.3      32   G32       0.1065
   1005 O4'        25.7400   44.2260   11.1920 O.3      32   G32      -0.3548
   1006 C3'        23.4360   44.6670   10.8150 C.3      32   G32       0.2022
   1007 O3'        22.7630   44.1880   11.9930 O.3      32   G32      -0.5246
   1008 C2'        24.1910   45.9640   11.1070 C.3      32   G32       0.0670
   1009 O2'        23.4660   46.8550   11.8990 O.3      32   G32      -0.6139
   1010 C1'        25.3750   45.4180   11.8780 C.3      32   G32       0.0191
   1011 N9         26.5070   46.3240   11.9200 N.ar     32   G32       0.0492
   1012 C8         27.0330   47.0340   10.8700 C.ar     32   G32       0.1374
   1013 N7         27.9860   47.8480   11.2150 N.ar     32   G32      -0.5709
   1014 C5         28.1100   47.6590   12.5830 C.ar     32   G32       0.1744
   1015 C6         28.9910   48.2620   13.5090 C.2      32   G32       0.4770
   1016 O6         29.8860   49.0910   13.2850 O.2      32   G32      -0.5597
   1017 N1         28.7570   47.8240   14.8170 N.am     32   G32      -0.4787
   1018 C2         27.8020   46.9200   15.1700 C.2      32   G32       0.7657
   1019 N2         27.7360   46.6100   16.4610 N.pl3    32   G32      -0.9672
   1020 N3         26.9740   46.3410   14.3090 N.2      32   G32      -0.6323
   1021 C4         27.2080   46.7250   13.0320 C.ar     32   G32       0.1222
   1022 H5'        24.0404   43.3041    8.4147 H        32   G32       0.0679
   1023 H5''       25.7314   42.9226    8.8202 H        32   G32       0.0679
   1024 H4'        24.3426   42.7189   10.8124 H        32   G32       0.1174
   1025 H3'        22.7419   44.7902    9.9836 H        32   G32       0.0615
   1026 H2'        24.5158   46.4413   10.1825 H        32   G32       0.0972
   1027 H1'        25.0663   45.1734   12.8944 H        32   G32       0.2006
   1028 H8         26.6876   46.9265    9.8524 H        32   G32       0.1640
   1029 H1         29.3371   48.2051   15.5507 H        32   G32       0.3424
   1030 H21        28.3690   47.0440   17.1176 H        32   G32       0.4364
   1031 H22        27.0529   45.9405   16.7853 H        32   G32       0.4364
   1032 HO2'       23.9988   47.1210   12.6520 H        32   G32       0.4186
   1033 P          21.1650   44.1000   12.0440 P.3      33   G33       1.1662
   1034 OP1        20.6250   43.9580   10.6480 O.co2    33   G33      -0.7760
   1035 OP2        20.6680   45.2070   12.8940 O.co2    33   G33      -0.7760
   1036 O5'        20.9500   42.7250   12.8430 O.3      33   G33      -0.4989
   1037 C5'        20.9030   41.5030   12.1190 C.3      33   G33       0.0558
   1038 C4'        20.3180   40.3960   12.9560 C.3      33   G33       0.1065
   1039 O4'        21.0860   40.2330   14.1690 O.3      33   G33      -0.3548
   1040 C3'        18.9030   40.6250   13.4360 C.3      33   G33       0.2022
   1041 O3'        17.9960   40.2790   12.4230 O.3      33   G33      -0.5246
   1042 C2'        18.8500   39.6660   14.6070 C.3      33   G33       0.0670
   1043 O2'        18.7860   38.3130   14.1870 O.3      33   G33      -0.6139
   1044 C1'        20.2140   39.9240   15.2400 C.3      33   G33       0.0191
   1045 N9         20.2490   41.0300   16.2020 N.ar     33   G33       0.0492
   1046 C8         21.0040   42.1790   16.1010 C.ar     33   G33       0.1374
   1047 N7         20.8950   42.9700   17.1300 N.ar     33   G33      -0.5709
   1048 C5         20.0050   42.3100   17.9680 C.ar     33   G33       0.1744
   1049 C6         19.5170   42.6790   19.2470 C.2      33   G33       0.4770
   1050 O6         19.7750   43.6960   19.9010 O.2      33   G33      -0.5597
   1051 N1         18.6050   41.7610   19.7410 N.am     33   G33      -0.4787
   1052 C2         18.2510   40.5960   19.1100 C.2      33   G33       0.7657
   1053 N2         17.3590   39.8300   19.7480 N.pl3    33   G33      -0.9672
   1054 N3         18.7480   40.2060   17.9360 N.2      33   G33      -0.6323
   1055 C4         19.6140   41.1080   17.4230 C.ar     33   G33       0.1222
   1056 H5'        20.2871   41.6400   11.2302 H        33   G33       0.0679
   1057 H5''       21.9130   41.2273   11.8158 H        33   G33       0.0679
   1058 H4'        20.3528   39.4666   12.3876 H        33   G33       0.1174
   1059 H3'        18.7579   41.6550   13.7617 H        33   G33       0.0615
   1060 H2'        18.0376   39.9125   15.2907 H        33   G33       0.0972
   1061 H1'        20.5585   39.0133   15.7299 H        33   G33       0.2006
   1062 H8         21.6277   42.4024   15.2481 H        33   G33       0.1640
   1063 H1         18.1696   41.9641   20.6294 H        33   G33       0.3424
   1064 H21        16.9858   40.1248   20.6390 H        33   G33       0.4364
   1065 H22        17.0587   38.9569   19.3387 H        33   G33       0.4364
   1066 HO2'       18.3719   37.7839   14.8727 H        33   G33       0.4186
   1067 P          16.7430   41.2080   12.1190 P.3      34   U34       1.1662
   1068 OP1        16.1420   40.7450   10.8540 O.co2    34   U34      -0.7760
   1069 OP2        17.1300   42.6380   12.2680 O.co2    34   U34      -0.7760
   1070 O5'        15.7590   40.8460   13.3230 O.3      34   U34      -0.4989
   1071 C5'        15.2220   39.5330   13.4530 C.3      34   U34       0.0558
   1072 C4'        14.3530   39.4370   14.6860 C.3      34   U34       0.1065
   1073 O4'        15.1840   39.5260   15.8670 O.3      34   U34      -0.3548
   1074 C3'        13.3780   40.5670   14.8620 C.3      34   U34       0.2022
   1075 O3'        12.2360   40.3730   14.0590 O.3      34   U34      -0.5246
   1076 C2'        13.0790   40.4830   16.3580 C.3      34   U34       0.0670
   1077 O2'        12.1600   39.4670   16.6870 O.3      34   U34      -0.6139
   1078 C1'        14.4610   40.1440   16.9180 C.3      34   U34       0.0674
   1079 N1         15.2180   41.3540   17.4030 N.am     34   U34       0.0418
   1080 C2         14.8470   41.9520   18.5990 C.2      34   U34       0.4687
   1081 O2         13.9550   41.5370   19.3000 O.2      34   U34      -0.5477
   1082 N3         15.5490   43.0860   18.9280 N.am     34   U34      -0.3549
   1083 C4         16.5480   43.6980   18.1860 C.2      34   U34       0.5952
   1084 O4         17.1000   44.6920   18.6280 O.2      34   U34      -0.5761
   1085 C5         16.8810   43.0350   16.9480 C.2      34   U34      -0.3635
   1086 C6         16.2120   41.9170   16.6030 C.2      34   U34      -0.1126
   1087 H5'        14.6223   39.3019   12.5726 H        34   U34       0.0679
   1088 H5''       16.0389   38.8156   13.5311 H        34   U34       0.0679
   1089 H4'        13.8178   38.4874   14.6847 H        34   U34       0.1174
   1090 H3'        13.8528   41.5185   14.6228 H        34   U34       0.0615
   1091 H2'        12.7375   41.4467   16.7359 H        34   U34       0.0972
   1092 H1'        14.3506   39.4373   17.7405 H        34   U34       0.1824
   1093 H3         15.3113   43.5222   19.8074 H        34   U34       0.3154
   1094 H5         17.6556   43.4293   16.3069 H        34   U34       0.1811
   1095 H6         16.4561   41.4366   15.6670 H        34   U34       0.2188
   1096 HO2'       11.3235   39.8622   16.9432 H        34   U34       0.4186
   1097 P          11.3970   41.6430   13.5540 P.3      35   G35       1.1662
   1098 OP1        10.3520   41.1520   12.6240 O.co2    35   G35      -0.7760
   1099 OP2        12.3390   42.6930   13.1000 O.co2    35   G35      -0.7760
   1100 O5'        10.7120   42.1670   14.9020 O.3      35   G35      -0.4989
   1101 C5'         9.4480   41.6820   15.2990 C.3      35   G35       0.0558
   1102 C4'         9.0710   42.2110   16.6670 C.3      35   G35       0.1065
   1103 O4'        10.1870   42.0750   17.5760 O.3      35   G35      -0.3548
   1104 C3'         8.7600   43.6880   16.7460 C.3      35   G35       0.2022
   1105 O3'         7.4790   43.9890   16.2230 O.3      35   G35      -0.5246
   1106 C2'         8.8490   43.8910   18.2580 C.3      35   G35       0.0670
   1107 O2'         7.7720   43.3070   18.9870 O.3      35   G35      -0.6139
   1108 C1'        10.1290   43.1280   18.5410 C.3      35   G35       0.0191
   1109 N9         11.3150   43.9730   18.4120 N.ar     35   G35       0.0492
   1110 C8         12.2310   43.9510   17.4010 C.ar     35   G35       0.1374
   1111 N7         13.1400   44.8650   17.5070 N.ar     35   G35      -0.5709
   1112 C5         12.8050   45.5540   18.6600 C.ar     35   G35       0.1744
   1113 C6         13.4610   46.6360   19.3020 C.2      35   G35       0.4770
   1114 O6         14.4960   47.2100   18.9610 O.2      35   G35      -0.5597
   1115 N1         12.7890   47.0520   20.4430 N.am     35   G35      -0.4787
   1116 C2         11.6470   46.4670   20.9360 C.2      35   G35       0.7657
   1117 N2         11.1630   46.9860   22.0650 N.pl3    35   G35      -0.9672
   1118 N3         11.0490   45.4210   20.3750 N.2      35   G35      -0.6323
   1119 C4         11.6800   45.0240   19.2310 C.ar     35   G35       0.1222
   1120 H5'         8.6995   42.0020   14.5742 H        35   G35       0.0679
   1121 H5''        9.4750   40.5928   15.3302 H        35   G35       0.0679
   1122 H4'         8.2231   41.6438   17.0509 H        35   G35       0.1174
   1123 H3'         9.5282   44.2690   16.2357 H        35   G35       0.0615
   1124 H2'         8.9607   44.9468   18.5046 H        35   G35       0.0972
   1125 H1'        10.0886   42.7038   19.5443 H        35   G35       0.2006
   1126 H8         12.2000   43.2386   16.5899 H        35   G35       0.1640
   1127 H1         13.1663   47.8415   20.9474 H        35   G35       0.3424
   1128 H21        11.6256   47.7723   22.4984 H        35   G35       0.4364
   1129 H22        10.3338   46.5928   22.4867 H        35   G35       0.4364
   1130 HO2'        6.9630   43.7913   18.8065 H        35   G35       0.4186
   1131 P           7.2260   45.4130   15.5450 P.3      36   G36       1.1662
   1132 OP1         5.8350   45.4500   15.0460 O.co2    36   G36      -0.7760
   1133 OP2         8.3280   45.6830   14.5990 O.co2    36   G36      -0.7760
   1134 O5'         7.3720   46.4270   16.7780 O.3      36   G36      -0.4989
   1135 C5'         6.3880   46.4510   17.8020 C.3      36   G36       0.0558
   1136 C4'         6.6550   47.5560   18.8100 C.3      36   G36       0.1065
   1137 O4'         7.9520   47.3640   19.4190 O.3      36   G36      -0.3548
   1138 C3'         6.7130   48.9520   18.2360 C.3      36   G36       0.2022
   1139 O3'         5.4230   49.4650   18.0690 O.3      36   G36      -0.5246
   1140 C2'         7.5120   49.6990   19.2990 C.3      36   G36       0.0670
   1141 O2'         6.7320   50.1160   20.4010 O.3      36   G36      -0.6139
   1142 C1'         8.5270   48.6320   19.7220 C.3      36   G36       0.0191
   1143 N9          9.8130   48.7520   19.0190 N.ar     36   G36       0.0492
   1144 C8         10.1880   48.1140   17.8690 C.ar     36   G36       0.1374
   1145 N7         11.3560   48.4820   17.4310 N.ar     36   G36      -0.5709
   1146 C5         11.7840   49.4330   18.3390 C.ar     36   G36       0.1744
   1147 C6         12.9840   50.2040   18.3770 C.2      36   G36       0.4770
   1148 O6         13.9440   50.1970   17.5780 O.2      36   G36      -0.5597
   1149 N1         12.9880   51.0910   19.4470 N.am     36   G36      -0.4787
   1150 C2         11.9760   51.2120   20.3690 C.2      36   G36       0.7657
   1151 N2         12.1680   52.0920   21.3500 N.pl3    36   G36      -0.9672
   1152 N3         10.8490   50.5180   20.3300 N.2      36   G36      -0.6323
   1153 C4         10.8330   49.6290   19.3090 C.ar     36   G36       0.1222
   1154 H5'         6.3931   45.4917   18.3196 H        36   G36       0.0679
   1155 H5''        5.4080   46.6082   17.3515 H        36   G36       0.0679
   1156 H4'         5.8898   47.5221   19.5855 H        36   G36       0.1174
   1157 H3'         7.2488   48.9517   17.2868 H        36   G36       0.0615
   1158 H2'         8.0246   50.5524   18.8552 H        36   G36       0.0972
   1159 H1'         8.6964   48.7026   20.7964 H        36   G36       0.2006
   1160 H8          9.5742   47.3766   17.3730 H        36   G36       0.1640
   1161 H1         13.7936   51.6906   19.5549 H        36   G36       0.3424
   1162 H21        13.0238   52.6271   21.3881 H        36   G36       0.4364
   1163 H22        11.4578   52.2243   22.0559 H        36   G36       0.4364
   1164 HO2'        6.7759   51.0716   20.4813 H        36   G36       0.4186
   1165 P           4.9770   50.0500   16.6400 P.3      37   U37       1.1662
   1166 OP1         3.4930   50.0940   16.6040 O.co2    37   U37      -0.7760
   1167 OP2         5.7150   49.3000   15.5900 O.co2    37   U37      -0.7760
   1168 O5'         5.5360   51.5570   16.6720 O.3      37   U37      -0.4989
   1169 C5'         5.1370   52.4630   17.7040 C.3      37   U37       0.0558
   1170 C4'         6.2170   53.4990   17.9790 C.3      37   U37       0.1065
   1171 O4'         7.4250   52.8260   18.4240 O.3      37   U37      -0.3548
   1172 C3'         6.6660   54.3140   16.7800 C.3      37   U37       0.2022
   1173 O3'         5.7810   55.3920   16.5280 O.3      37   U37      -0.5246
   1174 C2'         8.0430   54.7900   17.2280 C.3      37   U37       0.0670
   1175 O2'         8.0020   55.9550   18.0330 O.3      37   U37      -0.6139
   1176 C1'         8.5630   53.5790   18.0290 C.3      37   U37       0.0674
   1177 N1          9.5130   52.7020   17.2190 N.am     37   U37       0.0418
   1178 C2         10.8830   52.9710   17.2530 C.2      37   U37       0.4687
   1179 O2         11.3870   53.7980   17.9900 O.2      37   U37      -0.5477
   1180 N3         11.6470   52.2130   16.3890 N.am     37   U37      -0.3549
   1181 C4         11.1980   51.2520   15.4940 C.2      37   U37       0.5952
   1182 O4         12.0070   50.6670   14.7650 O.2      37   U37      -0.5761
   1183 C5          9.7690   51.0440   15.4910 C.2      37   U37      -0.3635
   1184 C6          8.9960   51.7740   16.3130 C.2      37   U37      -0.1126
   1185 H5'         4.2255   52.9743   17.3944 H        37   U37       0.0679
   1186 H5''        4.9396   51.9010   18.6168 H        37   U37       0.0679
   1187 H4'         5.8740   54.1744   18.7628 H        37   U37       0.1174
   1188 H3'         6.7516   53.6783   15.8987 H        37   U37       0.0615
   1189 H2'         8.6781   54.9611   16.3588 H        37   U37       0.0972
   1190 H1'         9.0802   53.9364   18.9194 H        37   U37       0.1824
   1191 H3         12.6436   52.3757   16.4104 H        37   U37       0.3154
   1192 H5          9.3260   50.3093   14.8349 H        37   U37       0.1811
   1193 H6          7.9256   51.6365   16.2708 H        37   U37       0.2188
   1194 HO2'        8.7333   56.5316   17.7997 H        37   U37       0.4186
   1195 P           4.8400   55.3640   15.2190 P.3      38   A38       1.1662
   1196 OP1         3.8670   56.4850   15.3070 O.co2    38   A38      -0.7760
   1197 OP2         4.3490   53.9730   15.0370 O.co2    38   A38      -0.7760
   1198 O5'         5.8540   55.6290   14.0140 O.3      38   A38      -0.4989
   1199 C5'         6.1670   56.9210   13.5660 C.3      38   A38       0.0558
   1200 C4'         7.3020   56.8070   12.5740 C.3      38   A38       0.1065
   1201 O4'         7.5080   58.0600   11.8680 O.3      38   A38      -0.3548
   1202 C3'         8.6570   56.4460   13.1820 C.3      38   A38       0.2022
   1203 O3'         9.3410   55.5990   12.2860 O.3      38   A38      -0.5246
   1204 C2'         9.3120   57.8210   13.2580 C.3      38   A38       0.0670
   1205 O2'        10.7080   57.7760   13.3390 O.3      38   A38      -0.6139
   1206 C1'         8.8770   58.3610   11.9240 C.3      38   A38       0.0394
   1207 N9          9.0520   59.7860   11.7450 N.ar     38   A38      -0.0251
   1208 C8          9.2300   60.7330   12.7120 C.ar     38   A38       0.2006
   1209 N7          9.3490   61.9440   12.2440 N.ar     38   A38      -0.6073
   1210 C5          9.1960   61.7890   10.8800 C.ar     38   A38       0.0515
   1211 C6          9.2470   62.7040    9.8040 C.ar     38   A38       0.7009
   1212 N6          9.4040   64.0230    9.9670 N.pl3    38   A38      -0.9019
   1213 N1          9.0600   62.2100    8.5540 N.ar     38   A38      -0.7615
   1214 C2          8.8980   60.8790    8.3960 C.ar     38   A38       0.5875
   1215 N3          8.8430   59.9290    9.3270 N.ar     38   A38      -0.6997
   1216 C4          9.0170   60.4560   10.5560 C.ar     38   A38       0.3053
   1217 H5'         5.2970   57.3663   13.0835 H        38   A38       0.0679
   1218 H5''        6.4761   57.5382   14.4096 H        38   A38       0.0679
   1219 H4'         7.0410   56.0419   11.8428 H        38   A38       0.1174
   1220 H3'         8.5511   55.9925   14.1675 H        38   A38       0.0615
   1221 H2'         8.8919   58.4095   14.0737 H        38   A38       0.0972
   1222 H1'         9.3988   57.8283   11.1289 H        38   A38       0.2007
   1223 H8          9.2686   60.5008   13.7660 H        38   A38       0.1553
   1224 H2          8.7997   60.5387    7.3757 H        38   A38       0.0473
   1225 H61         9.2072   64.6950   10.6949 H        38   A38       0.4115
   1226 H62         9.8258   64.4558    9.1577 H        38   A38       0.4115
   1227 HO2'       11.0503   57.2064   12.6462 H        38   A38       0.4186
   1228 P           9.5640   54.0450   12.6020 P.3      39   U39       1.1662
   1229 OP1         8.3020   53.3350   12.2990 O.co2    39   U39      -0.7760
   1230 OP2        10.1720   53.9180   13.9400 O.co2    39   U39      -0.7760
   1231 O5'        10.6800   53.6580   11.5200 O.3      39   U39      -0.4989
   1232 C5'        11.0390   52.3070   11.2720 C.3      39   U39       0.0558
   1233 C4'        12.1410   52.2130   10.1980 C.3      39   U39       0.1065
   1234 O4'        11.7670   52.9820    9.0170 O.3      39   U39      -0.3548
   1235 C3'        13.5140   52.7320   10.6100 C.3      39   U39       0.2022
   1236 O3'        14.5090   51.8970   10.0600 O.3      39   U39      -0.5246
   1237 C2'        13.5170   54.1430    9.9980 C.3      39   U39       0.0670
   1238 O2'        14.7950   54.6500    9.7130 O.3      39   U39      -0.6139
   1239 C1'        12.7760   53.9080    8.7140 C.3      39   U39       0.0674
   1240 N1         12.1650   55.1530    8.1360 N.am     39   U39       0.0418
   1241 C2         12.7830   55.7500    7.0530 C.2      39   U39       0.4687
   1242 O2         13.7750   55.2950    6.5130 O.2      39   U39      -0.5477
   1243 N3         12.1630   56.8650    6.5820 N.am     39   U39      -0.3549
   1244 C4         11.0610   57.4950    7.0980 C.2      39   U39       0.5952
   1245 O4         10.6410   58.5330    6.5550 O.2      39   U39      -0.5761
   1246 C5         10.5000   56.8610    8.2680 C.2      39   U39      -0.3635
   1247 C6         11.0410   55.7280    8.7220 C.2      39   U39      -0.1126
   1248 H5'        10.1596   51.7626   10.9279 H        39   U39       0.0679
   1249 H5''       11.4003   51.8567   12.1965 H        39   U39       0.0679
   1250 H4'        12.2447   51.1680    9.9060 H        39   U39       0.1174
   1251 H3'        13.6022   52.7789   11.6954 H        39   U39       0.0615
   1252 H2'        12.9659   54.8353   10.6345 H        39   U39       0.0972
   1253 H1'        13.4560   53.4703    7.9831 H        39   U39       0.1824
   1254 H3         12.5630   57.2785    5.7519 H        39   U39       0.3154
   1255 H5          9.6507   57.2993    8.7710 H        39   U39       0.1811
   1256 H6         10.5906   55.2404    9.5740 H        39   U39       0.2188
   1257 HO2'       15.4490   53.9586    9.8389 H        39   U39       0.4186
   1258 P          15.1020   50.6620   10.8960 P.3      40   A40       1.1662
   1259 OP1        15.8610   49.8090    9.9670 O.co2    40   A40      -0.7760
   1260 OP2        14.0140   50.0730   11.7220 O.co2    40   A40      -0.7760
   1261 O5'        16.1090   51.3530   11.9110 O.3      40   A40      -0.4989
   1262 C5'        17.1980   52.1350   11.4700 C.3      40   A40       0.0558
   1263 C4'        18.2110   52.2770   12.5960 C.3      40   A40       0.1065
   1264 O4'        17.6810   53.1730   13.6320 O.3      40   A40      -0.3548
   1265 C3'        18.5580   50.9690   13.3140 C.3      40   A40       0.2022
   1266 O3'        19.9160   50.9840   13.7020 O.3      40   A40      -0.5246
   1267 C2'        17.6440   51.0240   14.5390 C.3      40   A40       0.0670
   1268 O2'        18.1330   50.2560   15.6190 O.3      40   A40      -0.6139
   1269 C1'        17.6720   52.5140   14.8690 C.3      40   A40       0.0394
   1270 N9         16.5210   52.9800   15.6230 N.ar     40   A40      -0.0251
   1271 C8         15.2150   52.6010   15.4620 C.ar     40   A40       0.2006
   1272 N7         14.3980   53.1440   16.3330 N.ar     40   A40      -0.6073
   1273 C5         15.2180   53.9420   17.1170 C.ar     40   A40       0.0515
   1274 C6         14.9580   54.7940   18.2150 C.ar     40   A40       0.7009
   1275 N6         13.7520   54.9900   18.7180 N.pl3    40   A40      -0.9019
   1276 N1         15.9960   55.4430   18.7700 N.ar     40   A40      -0.7615
   1277 C2         17.2210   55.2700   18.2430 C.ar     40   A40       0.5875
   1278 N3         17.5940   54.4730   17.2510 N.ar     40   A40      -0.6997
   1279 C4         16.5310   53.8400   16.7100 C.ar     40   A40       0.3053
   1280 H5'        17.6705   51.6503   10.6157 H        40   A40       0.0679
   1281 H5''       16.8410   53.1220   11.1760 H        40   A40       0.0679
   1282 H4'        19.1264   52.7096   12.1923 H        40   A40       0.1174
   1283 H3'        18.3336   50.1034   12.6908 H        40   A40       0.0615
   1284 H2'        16.6338   50.7109   14.2752 H        40   A40       0.0972
   1285 H1'        18.5856   52.7498   15.4148 H        40   A40       0.2007
   1286 H8         14.8884   51.9193   14.6906 H        40   A40       0.1553
   1287 H2         18.0081   55.8605   18.6882 H        40   A40       0.0473
   1288 HO2'       18.9872   50.5972   15.8940 H        40   A40       0.4186
   1289 H61        13.1325   54.3555   18.2345 H        40   A40       0.4115
   1290 H62        13.4992   55.6456   19.4435 H        40   A40       0.4115
   1291 P          21.0610   50.4000   12.7720 P.3      41   G41       1.1662
   1292 OP1        21.9560   51.5410   12.4200 O.co2    41   G41      -0.7760
   1293 OP2        20.4570   49.5750   11.6990 O.co2    41   G41      -0.7760
   1294 O5'        21.8450   49.4240   13.7590 O.3      41   G41      -0.4989
   1295 C5'        21.1990   48.3330   14.3760 C.3      41   G41       0.0558
   1296 C4'        22.0520   47.8360   15.5000 C.3      41   G41       0.1065
   1297 O4'        23.3540   47.4820   14.9620 O.3      41   G41      -0.3548
   1298 C3'        22.3470   48.8840   16.5530 C.3      41   G41       0.2022
   1299 O3'        21.3580   48.8800   17.5670 O.3      41   G41      -0.5246
   1300 C2'        23.7120   48.4600   17.0710 C.3      41   G41       0.0670
   1301 O2'        23.6450   47.3700   17.9640 O.3      41   G41      -0.6139
   1302 C1'        24.3820   48.0130   15.7880 C.3      41   G41       0.0191
   1303 N9         25.0770   49.0610   15.0520 N.ar     41   G41       0.0492
   1304 C8         24.9780   49.2870   13.7130 C.ar     41   G41       0.1374
   1305 N7         25.8280   50.1600   13.2680 N.ar     41   G41      -0.5709
   1306 C5         26.5190   50.5740   14.3880 C.ar     41   G41       0.1744
   1307 C6         27.5560   51.5090   14.5020 C.2      41   G41       0.4770
   1308 O6         28.0370   52.2130   13.6140 O.2      41   G41      -0.5597
   1309 N1         27.9940   51.6580   15.8020 N.am     41   G41      -0.4787
   1310 C2         27.5200   50.9480   16.8640 C.2      41   G41       0.7657
   1311 N2         28.0650   51.2310   18.0640 N.pl3    41   G41      -0.9672
   1312 N3         26.5470   50.0320   16.7660 N.2      41   G41      -0.6323
   1313 C4         26.1020   49.8920   15.4930 C.ar     41   G41       0.1222
   1314 H5'        20.2321   48.6528   14.7646 H        41   G41       0.0679
   1315 H5''       21.0539   47.5352   13.6476 H        41   G41       0.0679
   1316 H4'        21.5895   46.9635   15.9615 H        41   G41       0.1174
   1317 H3'        22.4097   49.8705   16.0936 H        41   G41       0.0615
   1318 H2'        24.2412   49.3017   17.5178 H        41   G41       0.0972
   1319 H1'        25.0909   47.2183   16.0207 H        41   G41       0.2006
   1320 H8         24.2594   48.7865   13.0809 H        41   G41       0.1640
   1321 H1         28.7166   52.3412   15.9787 H        41   G41       0.3424
   1322 H21        28.7911   51.9292   18.1369 H        41   G41       0.4364
   1323 H22        27.7472   50.7448   18.8903 H        41   G41       0.4364
   1324 HO2'       24.3805   47.4142   18.5794 H        41   G41       0.4186
   1325 P          20.5190   50.2170   17.8740 P.3      42   U42       1.1662
   1326 OP1        19.2760   49.8230   18.5440 O.co2    42   U42      -0.7760
   1327 OP2        20.4660   51.0320   16.6420 O.co2    42   U42      -0.7760
   1328 O5'        21.4310   51.0290   18.9040 O.3      42   U42      -0.4989
   1329 C5'        21.9910   50.4310   20.0500 C.3      42   U42       0.0558
   1330 C4'        22.8050   51.4750   20.8140 C.3      42   U42       0.1065
   1331 O4'        24.0180   51.7610   20.0890 O.3      42   U42      -0.3548
   1332 C3'        22.0980   52.8250   21.0410 C.3      42   U42       0.2022
   1333 O3'        22.3080   53.2930   22.3620 O.3      42   U42      -0.5246
   1334 C2'        22.7610   53.7510   20.0300 C.3      42   U42       0.0670
   1335 O2'        22.8240   55.0990   20.4860 O.3      42   U42      -0.6139
   1336 C1'        24.1630   53.1390   19.9020 C.3      42   U42       0.0674
   1337 N1         24.7570   53.3480   18.5690 N.am     42   U42       0.0418
   1338 C2         25.9660   53.9910   18.4590 C.2      42   U42       0.4687
   1339 O2         26.6170   54.3630   19.4210 O.2      42   U42      -0.5477
   1340 N3         26.3880   54.1900   17.1700 N.am     42   U42      -0.3549
   1341 C4         25.7100   53.8610   16.0190 C.2      42   U42       0.5952
   1342 O4         26.1910   54.1330   14.9200 O.2      42   U42      -0.5761
   1343 C5         24.4630   53.1960   16.2210 C.2      42   U42      -0.3635
   1344 C6         24.0490   52.9550   17.4510 C.2      42   U42      -0.1126
   1345 H5'        21.1941   50.0509   20.6892 H        42   U42       0.0679
   1346 H5''       22.6416   49.6091   19.7511 H        42   U42       0.0679
   1347 H4'        23.0738   51.0592   21.7851 H        42   U42       0.1174
   1348 H3'        21.0316   52.7359   20.8336 H        42   U42       0.0615
   1349 H2'        22.2393   53.7006   19.0743 H        42   U42       0.0972
   1350 H1'        24.8189   53.5505   20.6691 H        42   U42       0.1824
   1351 H3         27.2924   54.6241   17.0529 H        42   U42       0.3154
   1352 H5         23.8638   52.8929   15.3751 H        42   U42       0.1811
   1353 H6         23.1165   52.4278   17.5886 H        42   U42       0.2188
   1354 HO2'       21.9354   55.4553   20.5565 H        42   U42       0.4186
   1355 P          21.5370   52.6290   23.5860 P.3      43   C43       1.1662
   1356 OP1        22.5670   52.2260   24.5790 O.co2    43   C43      -0.7760
   1357 OP2        20.5770   51.6110   23.0720 O.co2    43   C43      -0.7760
   1358 O5'        20.6610   53.8370   24.2130 O.3      43   C43      -0.4989
   1359 C5'        19.9590   54.7610   23.3720 C.3      43   C43       0.0558
   1360 C4'        18.5840   55.1430   23.9370 C.3      43   C43       0.1065
   1361 O4'        17.7550   55.5910   22.8320 O.3      43   C43      -0.3548
   1362 C3'        17.7890   54.0110   24.5870 C.3      43   C43       0.2022
   1363 O3'        17.9340   54.0360   25.9900 O.3      43   C43      -0.5246
   1364 C2'        16.3520   54.3120   24.1640 C.3      43   C43       0.0670
   1365 O2'        15.7210   55.2810   24.9700 O.3      43   C43      -0.6139
   1366 C1'        16.5560   54.8560   22.7840 C.3      43   C43       0.0066
   1367 N1         16.5920   53.7850   21.6820 N.am     43   C43      -0.0484
   1368 C2         15.3770   53.2560   21.1940 C.2      43   C43       0.7538
   1369 O2         14.3110   53.6520   21.6570 O.2      43   C43      -0.6252
   1370 N3         15.4090   52.3250   20.2140 N.2      43   C43      -0.7584
   1371 C4         16.5690   51.9170   19.7060 C.2      43   C43       0.8185
   1372 N4         16.5230   51.0110   18.7310 N.pl3    43   C43      -0.9530
   1373 C5         17.8240   52.4180   20.1840 C.2      43   C43      -0.5215
   1374 C6         17.7890   53.3450   21.1590 C.2      43   C43       0.0053
   1375 H5'        20.5585   55.6656   23.2702 H        43   C43       0.0679
   1376 H5''       19.8251   54.3124   22.3876 H        43   C43       0.0679
   1377 H4'        18.7019   55.9572   24.6521 H        43   C43       0.1174
   1378 H3'        18.1074   53.0472   24.1898 H        43   C43       0.0615
   1379 H2'        15.7617   53.3962   24.1320 H        43   C43       0.0972
   1380 H1'        15.7408   55.5455   22.5643 H        43   C43       0.2029
   1381 H5         18.7606   52.0655   19.7778 H        43   C43       0.1928
   1382 H6         18.7150   53.7513   21.5383 H        43   C43       0.1958
   1383 H41        15.6320   50.6645   18.4053 H        43   C43       0.4234
   1384 H42        17.3791   50.6704   18.3173 H        43   C43       0.4234
   1385 HO2'       15.5921   54.9283   25.8535 H        43   C43       0.4186
   1386 P          17.7760   52.6940   26.8520 P.3      44   C44       1.1662
   1387 OP1        17.9500   53.0730   28.2760 O.co2    44   C44      -0.7760
   1388 OP2        18.6440   51.6520   26.2470 O.co2    44   C44      -0.7760
   1389 O5'        16.2490   52.2690   26.6180 O.3      44   C44      -0.4989
   1390 C5'        15.2310   52.8290   27.4080 C.3      44   C44       0.0558
   1391 C4'        13.8980   52.1720   27.1150 C.3      44   C44       0.1065
   1392 O4'        13.5470   52.3740   25.7190 O.3      44   C44      -0.3548
   1393 C3'        13.8530   50.6600   27.2910 C.3      44   C44       0.2022
   1394 O3'        13.6610   50.3000   28.6330 O.3      44   C44      -0.5246
   1395 C2'        12.6530   50.2860   26.4340 C.3      44   C44       0.0670
   1396 O2'        11.4020   50.5080   27.0860 O.3      44   C44      -0.6139
   1397 C1'        12.8350   51.2290   25.2370 C.3      44   C44       0.0066
   1398 N1         13.6180   50.5730   24.0960 N.am     44   C44      -0.0484
   1399 C2         12.9720   49.6390   23.2430 C.2      44   C44       0.7538
   1400 O2         11.7580   49.4300   23.3690 O.2      44   C44      -0.6252
   1401 N3         13.6980   49.0390   22.2610 N.2      44   C44      -0.7584
   1402 C4         15.0010   49.2950   22.1380 C.2      44   C44       0.8185
   1403 N4         15.6610   48.6850   21.1600 N.pl3    44   C44      -0.9530
   1404 C5         15.6910   50.1760   23.0280 C.2      44   C44      -0.5215
   1405 C6         14.9760   50.7860   23.9790 C.2      44   C44       0.0053
   1406 H5'        15.4760   52.6855   28.4604 H        44   C44       0.0679
   1407 H5''       15.1594   53.8962   27.1981 H        44   C44       0.0679
   1408 H4'        13.1320   52.6261   27.7436 H        44   C44       0.1174
   1409 H3'        14.7609   50.2021   26.8984 H        44   C44       0.0615
   1410 H2'        12.7301   49.2479   26.1107 H        44   C44       0.0972
   1411 H1'        11.8566   51.5403   24.8709 H        44   C44       0.2029
   1412 H5         16.7540   50.3431   22.9352 H        44   C44       0.1928
   1413 H6         15.4697   51.4565   24.6669 H        44   C44       0.1958
   1414 H41        15.1735   48.0576   20.5365 H        44   C44       0.4234
   1415 H42        16.6504   48.8486   21.0398 H        44   C44       0.4234
   1416 HO2'       11.3163   49.9056   27.8286 H        44   C44       0.4186
   1417 P          14.3620   48.9780   29.2030 P.3      45   A45       1.1662
   1418 OP1        13.9750   48.8570   30.6330 O.co2    45   A45      -0.7760
   1419 OP2        15.8070   49.0070   28.8250 O.co2    45   A45      -0.7760
   1420 O5'        13.6670   47.7980   28.3530 O.3      45   A45      -0.4989
   1421 C5'        12.3180   47.4200   28.6280 C.3      45   A45       0.0558
   1422 C4'        11.8330   46.3240   27.6950 C.3      45   A45       0.1065
   1423 O4'        11.8280   46.7900   26.3200 O.3      45   A45      -0.3548
   1424 C3'        12.6740   45.0640   27.6490 C.3      45   A45       0.2022
   1425 O3'        12.4060   44.2380   28.7540 O.3      45   A45      -0.5246
   1426 C2'        12.1690   44.4460   26.3580 C.3      45   A45       0.0670
   1427 O2'        10.8910   43.8370   26.5110 O.3      45   A45      -0.6139
   1428 C1'        12.0910   45.6870   25.4600 C.3      45   A45       0.0394
   1429 N9         13.3390   45.9380   24.7240 N.ar     45   A45      -0.0251
   1430 C8         14.3720   46.7610   25.0920 C.ar     45   A45       0.2006
   1431 N7         15.4050   46.7310   24.2670 N.ar     45   A45      -0.6073
   1432 C5         15.0340   45.8140   23.2990 C.ar     45   A45       0.0515
   1433 C6         15.6740   45.3450   22.1140 C.ar     45   A45       0.7009
   1434 N6         16.8750   45.7620   21.6880 N.pl3    45   A45      -0.9019
   1435 N1         15.0180   44.4260   21.3810 N.ar     45   A45      -0.7615
   1436 C2         13.8070   44.0020   21.7900 C.ar     45   A45       0.5875
   1437 N3         13.0890   44.3960   22.8440 N.ar     45   A45      -0.6997
   1438 C4         13.7610   45.3110   23.5670 C.ar     45   A45       0.3053
   1439 H5'        11.6766   48.2932   28.5084 H        45   A45       0.0679
   1440 H5''       12.2502   47.0670   29.6570 H        45   A45       0.0679
   1441 H4'        10.8149   46.0534   27.9749 H        45   A45       0.1174
   1442 H3'        13.7358   45.3014   27.5831 H        45   A45       0.0615
   1443 H2'        12.8917   43.7310   25.9648 H        45   A45       0.0972
   1444 H1'        11.2690   45.5731   24.7533 H        45   A45       0.2007
   1445 H8         14.3445   47.3790   25.9773 H        45   A45       0.1553
   1446 H2         13.3530   43.2355   21.1794 H        45   A45       0.0473
   1447 H61        16.7800   45.4792   20.7231 H        45   A45       0.4115
   1448 H62        17.6338   46.2151   22.1769 H        45   A45       0.4115
   1449 HO2'       10.9695   43.0650   27.0762 H        45   A45       0.4186
   1450 P          13.5470   43.2630   29.3320 P.3      46   C46       1.1662
   1451 OP1        12.8480   42.2140   30.1210 O.co2    46   C46      -0.7760
   1452 OP2        14.6060   44.0920   29.9770 O.co2    46   C46      -0.7760
   1453 O5'        14.1910   42.6130   28.0080 O.3      46   C46      -0.4989
   1454 C5'        14.4500   41.2280   27.9180 C.3      46   C46       0.0558
   1455 C4'        14.0950   40.6870   26.5390 C.3      46   C46       0.1065
   1456 O4'        14.0320   41.7680   25.5450 O.3      46   C46      -0.3548
   1457 C3'        15.1100   39.7250   25.9490 C.3      46   C46       0.2022
   1458 O3'        14.9640   38.4140   26.5220 O.3      46   C46      -0.5246
   1459 C2'        14.7210   39.7720   24.4700 C.3      46   C46       0.0670
   1460 O2'        13.5110   39.0640   24.1940 O.3      46   C46      -0.6139
   1461 C1'        14.5100   41.2820   24.2820 C.3      46   C46       0.0066
   1462 N1         15.7930   42.0320   23.8990 N.am     46   C46      -0.0484
   1463 C2         16.4000   41.8210   22.6340 C.2      46   C46       0.7538
   1464 O2         15.8670   41.0720   21.8080 O.2      46   C46      -0.6252
   1465 N3         17.5460   42.4870   22.3420 N.2      46   C46      -0.7584
   1466 C4         18.1060   43.3020   23.2500 C.2      46   C46       0.8185
   1467 N4         19.2300   43.9410   22.9070 N.pl3    46   C46      -0.9530
   1468 C5         17.5140   43.5320   24.5270 C.2      46   C46      -0.5215
   1469 C6         16.3780   42.8840   24.8080 C.2      46   C46       0.0053
   1470 H5'        15.5091   41.0520   28.1065 H        46   C46       0.0679
   1471 H5''       13.8607   40.7041   28.6705 H        46   C46       0.0679
   1472 H4'        13.1245   40.1933   26.5896 H        46   C46       0.1174
   1473 H3'        16.1240   40.0981   26.0931 H        46   C46       0.0615
   1474 H2'        15.5353   39.4113   23.8415 H        46   C46       0.0972
   1475 H1'        13.7506   41.4495   23.5183 H        46   C46       0.2029
   1476 H5         17.9662   44.2046   25.2408 H        46   C46       0.1928
   1477 H6         15.9094   43.0327   25.7696 H        46   C46       0.1958
   1478 H41        19.6391   43.7897   21.9960 H        46   C46       0.4234
   1479 H42        19.6696   44.5748   23.5590 H        46   C46       0.4234
   1480 HO2'       13.6558   38.1227   24.3149 H        46   C46       0.4186
   1481 P          16.2590   37.4840   26.7870 P.3      47   G47       1.1662
   1482 OP1        15.7710   36.2190   27.3880 O.co2    47   G47      -0.7760
   1483 OP2        17.2850   38.2900   27.4890 O.co2    47   G47      -0.7760
   1484 O5'        16.8090   37.1920   25.3160 O.3      47   G47      -0.4989
   1485 C5'        16.0220   36.4610   24.3830 C.3      47   G47       0.0558
   1486 C4'        16.8160   36.1840   23.1410 C.3      47   G47       0.1065
   1487 O4'        17.0890   37.4280   22.4640 O.3      47   G47      -0.3548
   1488 C3'        18.1710   35.5850   23.4180 C.3      47   G47       0.2022
   1489 O3'        18.0500   34.1640   23.5860 O.3      47   G47      -0.5246
   1490 C2'        18.9980   36.0210   22.1930 C.3      47   G47       0.0670
   1491 O2'        18.8930   35.1430   21.0840 O.3      47   G47      -0.6139
   1492 C1'        18.3690   37.3780   21.8550 C.3      47   G47       0.0191
   1493 N9         19.1540   38.5400   22.2960 N.ar     47   G47       0.0492
   1494 C8         19.0170   39.2540   23.4660 C.ar     47   G47       0.1374
   1495 N7         19.8270   40.2770   23.5610 N.ar     47   G47      -0.5709
   1496 C5         20.5640   40.2230   22.3930 C.ar     47   G47       0.1744
   1497 C6         21.5640   41.1070   21.9010 C.2      47   G47       0.4770
   1498 O6         22.0190   42.1270   22.4510 O.2      47   G47      -0.5597
   1499 N1         22.0340   40.7170   20.6330 N.am     47   G47      -0.4787
   1500 C2         21.5610   39.6190   19.9230 C.2      47   G47       0.7657
   1501 N2         22.0760   39.4170   18.6970 N.pl3    47   G47      -0.9672
   1502 N3         20.6250   38.7930   20.3780 N.2      47   G47      -0.6323
   1503 C4         20.1530   39.1660   21.5980 C.ar     47   G47       0.1222
   1504 H5'        15.7156   35.5165   24.8325 H        47   G47       0.0679
   1505 H5''       15.1367   37.0417   24.1238 H        47   G47       0.0679
   1506 H4'        16.2504   35.5243   22.4830 H        47   G47       0.1174
   1507 H3'        18.5908   36.0275   24.3213 H        47   G47       0.0615
   1508 H2'        20.0436   36.1505   22.4722 H        47   G47       0.0972
   1509 H1'        18.2397   37.4389   20.7744 H        47   G47       0.2006
   1510 H8         18.3053   38.9929   24.2353 H        47   G47       0.1640
   1511 H1         22.7642   41.2722   20.2102 H        47   G47       0.3424
   1512 H21        22.7810   40.0437   18.3358 H        47   G47       0.4364
   1513 H22        21.7578   38.6386   18.1375 H        47   G47       0.4364
   1514 HO2'       19.7715   34.9177   20.7693 H        47   G47       0.4186
   1515 P          18.9950   33.3710   24.6170 P.3      48   A48       1.1662
   1516 OP1        18.4600   31.9950   24.7400 O.co2    48   A48      -0.7760
   1517 OP2        19.1920   34.1920   25.8490 O.co2    48   A48      -0.7760
   1518 O5'        20.3840   33.3220   23.8170 O.3      48   A48      -0.4989
   1519 C5'        20.5030   32.5180   22.6430 C.3      48   A48       0.0558
   1520 C4'        21.9250   32.5250   22.1190 C.3      48   A48       0.1065
   1521 O4'        22.2990   33.8850   21.7890 O.3      48   A48      -0.3548
   1522 C3'        22.9930   32.1030   23.1100 C.3      48   A48       0.2022
   1523 O3'        23.1120   30.6920   23.2250 O.3      48   A48      -0.5246
   1524 C2'        24.2300   32.7530   22.5140 C.3      48   A48       0.0670
   1525 O2'        24.7230   32.0870   21.3660 O.3      48   A48      -0.6139
   1526 C1'        23.6620   34.1080   22.1370 C.3      48   A48       0.0394
   1527 N9         23.7180   35.0630   23.2430 N.ar     48   A48      -0.0251
   1528 C8         22.6640   35.5130   24.0000 C.ar     48   A48       0.2006
   1529 N7         23.0070   36.3370   24.9570 N.ar     48   A48      -0.6073
   1530 C5         24.3970   36.4130   24.8550 C.ar     48   A48       0.0515
   1531 C6         25.3760   37.1540   25.5830 C.ar     48   A48       0.7009
   1532 N6         25.0630   37.9510   26.6250 N.pl3    48   A48      -0.9019
   1533 N1         26.6850   37.0320   25.1950 N.ar     48   A48      -0.7615
   1534 C2         26.9820   36.2290   24.1480 C.ar     48   A48       0.5875
   1535 N3         26.1560   35.5030   23.3780 N.ar     48   A48      -0.6997
   1536 C4         24.8590   35.6330   23.7950 C.ar     48   A48       0.3053
   1537 H5'        20.2170   31.4938   22.8825 H        48   A48       0.0679
   1538 H5''       19.8355   32.9060   21.8736 H        48   A48       0.0679
   1539 H4'        21.9884   31.9022   21.2267 H        48   A48       0.1174
   1540 H3'        22.7822   32.5369   24.0874 H        48   A48       0.0615
   1541 H2'        25.0121   32.8574   23.2660 H        48   A48       0.0972
   1542 H1'        24.2010   34.5073   21.2778 H        48   A48       0.2007
   1543 H8         21.6420   35.2132   23.8212 H        48   A48       0.1553
   1544 H2         28.0301   36.1625   23.8962 H        48   A48       0.0473
   1545 H61        25.9475   38.4301   26.7159 H        48   A48       0.4115
   1546 H62        24.2066   38.0412   27.1527 H        48   A48       0.4115
   1547 HO2'       25.6828   32.1081   21.3713 H        48   A48       0.4186
   1548 P          23.4390   30.0730   24.6660 P.3      49   A49       1.1662
   1549 OP1        23.4990   28.5920   24.5560 O.co2    49   A49      -0.7760
   1550 OP2        22.5190   30.7070   25.6460 O.co2    49   A49      -0.7760
   1551 O5'        24.9090   30.6420   24.9700 O.3      49   A49      -0.4989
   1552 C5'        26.0730   30.2040   24.2480 C.3      49   A49       0.0558
   1553 C4'        27.2970   30.9460   24.7570 C.3      49   A49       0.1065
   1554 O4'        27.0390   32.3730   24.6910 O.3      49   A49      -0.3548
   1555 C3'        27.6370   30.6770   26.2200 C.3      49   A49       0.2022
   1556 O3'        28.5170   29.5730   26.3280 O.3      49   A49      -0.5246
   1557 C2'        28.2720   31.9960   26.6740 C.3      49   A49       0.0670
   1558 O2'        29.6370   32.1250   26.3190 O.3      49   A49      -0.6139
   1559 C1'        27.4470   33.0080   25.8980 C.3      49   A49       0.0394
   1560 N9         26.2600   33.5230   26.6010 N.ar     49   A49      -0.0251
   1561 C8         24.9560   33.2740   26.2840 C.ar     49   A49       0.2006
   1562 N7         24.0890   33.9360   27.0080 N.ar     49   A49      -0.6073
   1563 C5         24.8700   34.7350   27.8150 C.ar     49   A49       0.0515
   1564 C6         24.5450   35.7150   28.7860 C.ar     49   A49       0.7009
   1565 N6         23.2900   36.0620   29.1000 N.pl3    49   A49      -0.9019
   1566 N1         25.5670   36.3060   29.4400 N.ar     49   A49      -0.7615
   1567 C2         26.8300   35.9790   29.1040 C.ar     49   A49       0.5875
   1568 N3         27.2560   35.0920   28.1970 N.ar     49   A49      -0.6997
   1569 C4         26.2180   34.5010   27.5770 C.ar     49   A49       0.3053
   1570 H5'        26.2103   29.1330   24.3967 H        49   A49       0.0679
   1571 H5''       25.9398   30.4090   23.1858 H        49   A49       0.0679
   1572 H4'        28.1565   30.7021   24.1326 H        49   A49       0.1174
   1573 H3'        26.7258   30.4859   26.7868 H        49   A49       0.0615
   1574 H2'        28.1400   32.1357   27.7469 H        49   A49       0.0972
   1575 H1'        28.0885   33.8515   25.6430 H        49   A49       0.2007
   1576 H8         24.6640   32.5887   25.5020 H        49   A49       0.1553
   1577 H2         27.6056   36.5052   29.6406 H        49   A49       0.0473
   1578 H61        23.3584   36.8577   29.7183 H        49   A49       0.4115
   1579 H62        22.4419   35.6157   28.7811 H        49   A49       0.4115
   1580 HO2'       30.1576   31.4850   26.8099 H        49   A49       0.4186
   1581 P          28.2290   28.3970   27.3980 P.3      50   A50       1.1662
   1582 OP1        29.0030   27.2060   26.9760 O.co2    50   A50      -0.7760
   1583 OP2        26.7620   28.2870   27.6000 O.co2    50   A50      -0.7760
   1584 O5'        28.8710   28.9710   28.7540 O.3      50   A50      -0.4989
   1585 C5'        30.2630   29.3510   28.8060 C.3      50   A50       0.0558
   1586 C4'        30.5450   30.2750   29.9860 C.3      50   A50       0.1065
   1587 O4'        30.0020   31.5950   29.7110 O.3      50   A50      -0.3548
   1588 C3'        29.9040   29.8620   31.3110 C.3      50   A50       0.2022
   1589 O3'        30.7240   28.9280   32.0130 O.3      50   A50      -0.5246
   1590 C2'        29.7910   31.1950   32.0460 C.3      50   A50       0.0670
   1591 O2'        30.9960   31.5810   32.6930 O.3      50   A50      -0.6139
   1592 C1'        29.4510   32.1500   30.9010 C.3      50   A50       0.0394
   1593 N9         28.0060   32.3360   30.7290 N.ar     50   A50      -0.0251
   1594 C8         27.1610   31.6190   29.9190 C.ar     50   A50       0.2006
   1595 N7         25.8980   31.9480   30.0400 N.ar     50   A50      -0.6073
   1596 C5         25.9040   32.9330   31.0150 C.ar     50   A50       0.0515
   1597 C6         24.8740   33.7230   31.5940 C.ar     50   A50       0.7009
   1598 N6         23.5780   33.6250   31.2530 N.pl3    50   A50      -0.9019
   1599 N1         25.2290   34.6030   32.5640 N.ar     50   A50      -0.7615
   1600 C2         26.5170   34.6840   32.9330 C.ar     50   A50       0.5875
   1601 N3         27.5700   34.0240   32.4440 N.ar     50   A50      -0.6997
   1602 C4         27.1940   33.1590   31.4760 C.ar     50   A50       0.3053
   1603 H5'        30.8720   28.4526   28.9061 H        50   A50       0.0679
   1604 H5''       30.5289   29.8618   27.8805 H        50   A50       0.0679
   1605 H4'        31.6232   30.3563   30.1234 H        50   A50       0.1174
   1606 H3'        28.9139   29.4405   31.1373 H        50   A50       0.0615
   1607 H2'        28.9718   31.1610   32.7642 H        50   A50       0.0972
   1608 H1'        29.9155   33.1173   31.0926 H        50   A50       0.2007
   1609 H8         27.5063   30.8517   29.2419 H        50   A50       0.1553
   1610 H2         26.7307   35.3766   33.7337 H        50   A50       0.0473
   1611 HO2'       30.8791   31.5310   33.6445 H        50   A50       0.4186
   1612 H61        23.2502   34.4975   31.6420 H        50   A50       0.4115
   1613 H62        23.0816   32.8983   30.7574 H        50   A50       0.4115
   1614 P          30.0390   27.8040   32.9320 P.3      51   G51       1.1662
   1615 OP1        31.1200   26.9160   33.4410 O.co2    51   G51      -0.7760
   1616 OP2        28.9000   27.2140   32.1810 O.co2    51   G51      -0.7760
   1617 O5'        29.4290   28.6620   34.1600 O.3      51   G51      -0.4989
   1618 C5'        30.3130   29.2110   35.1650 C.3      51   G51       0.0558
   1619 C4'        29.6080   30.2050   36.0820 C.3      51   G51       0.1065
   1620 O4'        29.0220   31.2860   35.3160 O.3      51   G51      -0.3548
   1621 C3'        28.4430   29.6550   36.8700 C.3      51   G51       0.2022
   1622 O3'        28.8780   28.9170   37.9880 O.3      51   G51      -0.5246
   1623 C2'        27.7070   30.9310   37.2600 C.3      51   G51       0.0670
   1624 O2'        28.2720   31.5980   38.3770 O.3      51   G51      -0.6139
   1625 C1'        27.8550   31.7590   35.9830 C.3      51   G51       0.0191
   1626 N9         26.6960   31.5990   35.1000 N.ar     51   G51       0.0492
   1627 C8         26.5810   30.7640   34.0050 C.ar     51   G51       0.1374
   1628 N7         25.3740   30.7380   33.4910 N.ar     51   G51      -0.5709
   1629 C5         24.6310   31.5680   34.3240 C.ar     51   G51       0.1744
   1630 C6         23.2560   31.9500   34.2710 C.2      51   G51       0.4770
   1631 O6         22.3780   31.5920   33.4620 O.2      51   G51      -0.5597
   1632 N1         22.9230   32.8010   35.3290 N.am     51   G51      -0.4787
   1633 C2         23.8000   33.2220   36.3150 C.2      51   G51       0.7657
   1634 N2         23.3090   34.0320   37.2530 N.pl3    51   G51      -0.9672
   1635 N3         25.0730   32.8830   36.3670 N.2      51   G51      -0.6323
   1636 C4         25.4270   32.0700   35.3420 C.ar     51   G51       0.1222
   1637 H5'        31.1370   29.7202   34.6652 H        51   G51       0.0679
   1638 H5''       30.7137   28.3959   35.7676 H        51   G51       0.0679
   1639 H4'        30.3375   30.6213   36.7768 H        51   G51       0.1174
   1640 H3'        27.8133   29.0362   36.2308 H        51   G51       0.0615
   1641 H2'        26.6550   30.7145   37.4460 H        51   G51       0.0972
   1642 H1'        27.9792   32.8111   36.2395 H        51   G51       0.2006
   1643 H8         27.4051   30.1883   33.6103 H        51   G51       0.1640
   1644 H1         21.9708   33.1341   35.3781 H        51   G51       0.3424
   1645 H21        22.3373   34.3061   37.2254 H        51   G51       0.4364
   1646 H22        23.9087   34.3716   37.9913 H        51   G51       0.4364
   1647 HO2'       27.5773   31.8263   38.9990 H        51   G51       0.4186
   1648 P          28.0010   27.6740   38.4720 P.3      52   C52       1.1662
   1649 OP1        28.7870   26.9310   39.4880 O.co2    52   C52      -0.7760
   1650 OP2        27.5010   26.9630   37.2710 O.co2    52   C52      -0.7760
   1651 O5'        26.7390   28.3840   39.1680 O.3      52   C52      -0.4989
   1652 C5'        26.8910   29.0460   40.4240 C.3      52   C52       0.0558
   1653 C4'        25.6610   29.8600   40.7690 C.3      52   C52       0.1065
   1654 O4'        25.2730   30.6580   39.6260 O.3      52   C52      -0.3548
   1655 C3'        24.4130   29.0530   41.0960 C.3      52   C52       0.2022
   1656 O3'        24.4280   28.5890   42.4530 O.3      52   C52      -0.5246
   1657 C2'        23.3160   30.0800   40.8560 C.3      52   C52       0.0670
   1658 O2'        23.1070   30.9540   41.9540 O.3      52   C52      -0.6139
   1659 C1'        23.8600   30.8450   39.6410 C.3      52   C52       0.0066
   1660 N1         23.2590   30.3580   38.3270 N.am     52   C52      -0.0484
   1661 C2         21.9060   30.6670   38.0140 C.2      52   C52       0.7538
   1662 O2         21.2490   31.3970   38.7750 O.2      52   C52      -0.6252
   1663 N3         21.3610   30.1570   36.8730 N.2      52   C52      -0.7584
   1664 C4         22.0960   29.3770   36.0630 C.2      52   C52       0.8185
   1665 N4         21.5160   28.9130   34.9500 N.pl3    52   C52      -0.9530
   1666 C5         23.4560   29.0300   36.3700 C.2      52   C52      -0.5215
   1667 C6         23.9880   29.5270   37.5010 C.2      52   C52       0.0053
   1668 H5'        27.0522   28.2994   41.2016 H        52   C52       0.0679
   1669 H5''       27.7563   29.7072   40.3777 H        52   C52       0.0679
   1670 H4'        25.8908   30.5198   41.6056 H        52   C52       0.1174
   1671 H3'        24.3088   28.2149   40.4070 H        52   C52       0.0615
   1672 H2'        22.3843   29.5779   40.5952 H        52   C52       0.0972
   1673 H1'        23.6421   31.9062   39.7611 H        52   C52       0.2029
   1674 H5         24.0313   28.3922   35.7153 H        52   C52       0.1928
   1675 H6         25.0030   29.2713   37.7672 H        52   C52       0.1958
   1676 H41        20.5582   29.1559   34.7407 H        52   C52       0.4234
   1677 H42        22.0360   28.3199   34.3192 H        52   C52       0.4234
   1678 HO2'       22.1698   30.9936   42.1582 H        52   C52       0.4186
   1679 P          23.8190   27.1460   42.8190 P.3      53   U53       1.1662
   1680 OP1        24.1670   26.8490   44.2310 O.co2    53   U53      -0.7760
   1681 OP2        24.2230   26.1940   41.7570 O.co2    53   U53      -0.7760
   1682 O5'        22.2330   27.3690   42.6970 O.3      53   U53      -0.4989
   1683 C5'        21.5370   28.1830   43.6410 C.3      53   U53       0.0558
   1684 C4'        20.1480   28.5480   43.1350 C.3      53   U53       0.1065
   1685 O4'        20.2420   29.1830   41.8330 O.3      53   U53      -0.3548
   1686 C3'        19.2090   27.3810   42.8920 C.3      53   U53       0.2022
   1687 O3'        18.6440   26.9150   44.1070 O.3      53   U53      -0.5246
   1688 C2'        18.1670   28.0150   41.9660 C.3      53   U53       0.0670
   1689 O2'        17.1950   28.7910   42.6490 O.3      53   U53      -0.6139
   1690 C1'        19.0480   28.9190   41.0940 C.3      53   U53       0.0674
   1691 N1         19.3890   28.2980   39.7400 N.am     53   U53       0.0418
   1692 C2         18.4320   28.3080   38.7300 C.2      53   U53       0.4687
   1693 O2         17.3530   28.8540   38.8380 O.2      53   U53      -0.5477
   1694 N3         18.8130   27.6880   37.5590 N.am     53   U53      -0.3549
   1695 C4         20.0120   27.0350   37.3120 C.2      53   U53       0.5952
   1696 O4         20.2090   26.5190   36.2170 O.2      53   U53      -0.5761
   1697 C5         20.9520   27.0520   38.4090 C.2      53   U53      -0.3635
   1698 C6         20.6130   27.6670   39.5550 C.2      53   U53      -0.1126
   1699 H5'        21.4412   27.6364   44.5792 H        53   U53       0.0679
   1700 H5''       22.1062   29.0961   43.8150 H        53   U53       0.0679
   1701 H4'        19.6829   29.2402   43.8369 H        53   U53       0.1174
   1702 H3'        19.7311   26.5725   42.3803 H        53   U53       0.0615
   1703 H2'        17.6845   27.2511   41.3563 H        53   U53       0.0972
   1704 H1'        18.5251   29.8604   40.9257 H        53   U53       0.1824
   1705 H3         18.1478   27.7117   36.7993 H        53   U53       0.3154
   1706 H5         21.9162   26.5759   38.3093 H        53   U53       0.1811
   1707 H6         21.3236   27.6709   40.3683 H        53   U53       0.2188
   1708 HO2'       16.6495   28.2165   43.1912 H        53   U53       0.4186
   1709 P          18.6950   25.3480   44.4570 P.3      54   U54       1.1662
   1710 OP1        20.0820   25.0160   44.8790 O.co2    54   U54      -0.7760
   1711 OP2        18.0680   24.6050   43.3360 O.co2    54   U54      -0.7760
   1712 O5'        17.7160   25.2330   45.7230 O.3      54   U54      -0.4989
   1713 H5'        17.6759   24.3194   46.0152 H        54   U54       0.0679
   1714 O5'        12.2640   34.2050   33.2250 O.3      55   G57      -0.6223
   1715 C5'        11.6120   34.9460   34.2800 C.3      55   G57       0.0558
   1716 C4'        12.3460   34.8230   35.6140 C.3      55   G57       0.1065
   1717 O4'        12.7260   33.4420   35.8740 O.3      55   G57      -0.3548
   1718 C3'        13.6620   35.5840   35.7400 C.3      55   G57       0.2022
   1719 O3'        13.4450   36.9710   35.9650 O.3      55   G57      -0.5246
   1720 C2'        14.2540   34.8880   36.9600 C.3      55   G57       0.0670
   1721 O2'        13.5840   35.2330   38.1700 O.3      55   G57      -0.6139
   1722 C1'        13.9600   33.4300   36.6000 C.3      55   G57       0.0191
   1723 N9         15.0220   32.8030   35.7830 N.ar     55   G57       0.0492
   1724 C8         15.0230   32.5920   34.4200 C.ar     55   G57       0.1374
   1725 N7         16.1320   32.0650   33.9710 N.ar     55   G57      -0.5709
   1726 C5         16.9180   31.9080   35.1040 C.ar     55   G57       0.1744
   1727 C6         18.2280   31.3690   35.2500 C.2      55   G57       0.4770
   1728 O6         18.9770   30.9230   34.3710 O.2      55   G57      -0.5597
   1729 N1         18.6920   31.4740   36.5640 N.am     55   G57      -0.4787
   1730 C2         17.9670   32.0000   37.6130 C.2      55   G57       0.7657
   1731 N2         18.5520   31.9730   38.8210 N.pl3    55   G57      -0.9672
   1732 N3         16.7330   32.4810   37.4940 N.2      55   G57      -0.6323
   1733 C4         16.2670   32.3970   36.2200 C.ar     55   G57       0.1222
   1734 H5'        11.5733   35.9979   33.9971 H        55   G57       0.0679
   1735 H5''       10.5947   34.5730   34.3991 H        55   G57       0.0679
   1736 H4'        11.6774   35.1536   36.4088 H        55   G57       0.1174
   1737 H3'        14.2875   35.4263   34.8613 H        55   G57       0.0615
   1738 H2'        15.3263   35.0680   37.0365 H        55   G57       0.0972
   1739 H1'        13.8290   32.8554   37.5169 H        55   G57       0.2006
   1740 H8         14.1862   32.8389   33.7834 H        55   G57       0.1640
   1741 H1         19.6252   31.1408   36.7596 H        55   G57       0.3424
   1742 H21        19.4831   31.5951   38.9229 H        55   G57       0.4364
   1743 H22        18.0610   32.3306   39.6279 H        55   G57       0.4364
   1744 HO2'       13.7720   36.1482   38.3907 H        55   G57       0.4186
   1745 HO5'       11.8089   34.0322   32.3976 H        55   G57       0.4295
   1746 P          14.5110   38.0560   35.4380 P.3      56   C58       1.1662
   1747 OP1        13.9180   39.3930   35.6640 O.co2    56   C58      -0.7760
   1748 OP2        14.9510   37.6810   34.0650 O.co2    56   C58      -0.7760
   1749 O5'        15.7590   37.8490   36.4280 O.3      56   C58      -0.4989
   1750 C5'        15.7280   38.3750   37.7490 C.3      56   C58       0.0558
   1751 C4'        16.9150   37.8880   38.5530 C.3      56   C58       0.1065
   1752 O4'        17.0650   36.4550   38.3630 O.3      56   C58      -0.3548
   1753 C3'        18.2710   38.4480   38.1360 C.3      56   C58       0.2022
   1754 O3'        18.5150   39.7600   38.6780 O.3      56   C58      -0.5246
   1755 C2'        19.2150   37.3990   38.7190 C.3      56   C58       0.0670
   1756 O2'        19.4470   37.5480   40.1130 O.3      56   C58      -0.6139
   1757 C1'        18.4480   36.1110   38.4290 C.3      56   C58       0.0066
   1758 N1         18.8930   35.4370   37.1270 N.am     56   C58      -0.0484
   1759 C2         20.1500   34.7830   37.0820 C.2      56   C58       0.7538
   1760 O2         20.8460   34.7300   38.1090 O.2      56   C58      -0.6252
   1761 N3         20.5520   34.1990   35.9170 N.2      56   C58      -0.7584
   1762 C4         19.7710   34.2500   34.8320 C.2      56   C58       0.8185
   1763 N4         20.1990   33.6240   33.7340 N.pl3    56   C58      -0.9530
   1764 C5         18.5070   34.9390   34.8330 C.2      56   C58      -0.5215
   1765 C6         18.1150   35.5220   35.9850 C.2      56   C58       0.0053
   1766 H5'        15.7528   39.4636   37.7001 H        56   C58       0.0679
   1767 H5''       14.8077   38.0586   38.2399 H        56   C58       0.0679
   1768 H4'        16.7467   38.0971   39.6094 H        56   C58       0.1174
   1769 H3'        18.3533   38.4674   37.0493 H        56   C58       0.0615
   1770 H2'        20.1613   37.4028   38.1780 H        56   C58       0.0972
   1771 H1'        18.5996   35.4166   39.2553 H        56   C58       0.2029
   1772 H5         17.8950   34.9875   33.9444 H        56   C58       0.1928
   1773 H6         17.1807   36.0628   36.0167 H        56   C58       0.1958
   1774 H41        21.0850   33.1391   33.7420 H        56   C58       0.4234
   1775 H42        19.6370   33.6350   32.8949 H        56   C58       0.4234
   1776 HO2'       19.9619   36.8036   40.4329 H        56   C58       0.4186
   1777 P          19.4480   40.8050   37.8700 P.3      57   U59       1.1662
   1778 OP1        19.4560   42.0830   38.6300 O.co2    57   U59      -0.7760
   1779 OP2        19.0290   40.7960   36.4430 O.co2    57   U59      -0.7760
   1780 O5'        20.9070   40.1420   37.9430 O.3      57   U59      -0.4989
   1781 C5'        21.6090   40.0750   39.1890 C.3      57   U59       0.0558
   1782 C4'        22.9710   39.4300   39.0090 C.3      57   U59       0.1065
   1783 O4'        22.8110   38.0600   38.5660 O.3      57   U59      -0.3548
   1784 C3'        23.8410   40.0400   37.9310 C.3      57   U59       0.2022
   1785 O3'        24.4610   41.2250   38.3790 O.3      57   U59      -0.5246
   1786 C2'        24.8370   38.9190   37.6830 C.3      57   U59       0.0670
   1787 O2'        25.8310   38.8180   38.6950 O.3      57   U59      -0.6139
   1788 C1'        23.9110   37.7070   37.7240 C.3      57   U59       0.0674
   1789 N1         23.3990   37.2570   36.3350 N.am     57   U59       0.0418
   1790 C2         24.2620   36.5630   35.4690 C.2      57   U59       0.4687
   1791 O2         25.4250   36.3050   35.7290 O.2      57   U59      -0.5477
   1792 N3         23.6950   36.1550   34.2920 N.am     57   U59      -0.3549
   1793 C4         22.3980   36.3520   33.8750 C.2      57   U59       0.5952
   1794 O4         22.0510   35.9250   32.7790 O.2      57   U59      -0.5761
   1795 C5         21.5640   37.0990   34.8000 C.2      57   U59      -0.3635
   1796 C6         22.0750   37.4940   35.9780 C.2      57   U59      -0.1126
   1797 H5'        21.0255   39.4852   39.8960 H        57   U59       0.0679
   1798 H5''       21.7383   41.0830   39.5830 H        57   U59       0.0679
   1799 H4'        23.5068   39.4438   39.9581 H        57   U59       0.1174
   1800 H3'        23.2545   40.2335   37.0329 H        57   U59       0.0615
   1801 H2'        25.2961   39.0210   36.6997 H        57   U59       0.0972
   1802 H1'        24.4468   36.8759   38.1827 H        57   U59       0.1824
   1803 H3         24.2973   35.6516   33.6565 H        57   U59       0.3154
   1804 H5         20.5419   37.3349   34.5431 H        57   U59       0.1811
   1805 H6         21.4343   38.0150   36.6740 H        57   U59       0.2188
   1806 HO2'       26.4057   39.5861   38.6575 H        57   U59       0.4186
   1807 P          24.6900   42.4510   37.3580 P.3      58   U60       1.1662
   1808 OP1        25.1420   43.6100   38.1710 O.co2    58   U60      -0.7760
   1809 OP2        23.4840   42.5830   36.4830 O.co2    58   U60      -0.7760
   1810 O5'        25.9090   41.9460   36.4370 O.3      58   U60      -0.4989
   1811 C5'        27.1710   41.6280   37.0360 C.3      58   U60       0.0558
   1812 C4'        28.0620   40.8580   36.0800 C.3      58   U60       0.1065
   1813 O4'        27.4840   39.5610   35.7800 O.3      58   U60      -0.3548
   1814 C3'        28.2330   41.4830   34.7210 C.3      58   U60       0.2022
   1815 O3'        29.1360   42.5660   34.7700 O.3      58   U60      -0.5246
   1816 C2'        28.7440   40.2950   33.9090 C.3      58   U60       0.0670
   1817 O2'        30.1100   39.9940   34.1530 O.3      58   U60      -0.6139
   1818 C1'        27.8490   39.1780   34.4520 C.3      58   U60       0.0674
   1819 N1         26.5800   38.9360   33.6020 N.am     58   U60       0.0418
   1820 C2         26.6600   38.1140   32.4780 C.2      58   U60       0.4687
   1821 O2         27.6920   37.5520   32.1220 O.2      58   U60      -0.5477
   1822 N3         25.4700   37.9660   31.7790 N.am     58   U60      -0.3549
   1823 C4         24.2450   38.5610   32.0610 C.2      58   U60       0.5952
   1824 O4         23.2760   38.3430   31.3310 O.2      58   U60      -0.5761
   1825 C5         24.2390   39.4120   33.2340 C.2      58   U60      -0.3635
   1826 C6         25.3800   39.5770   33.9350 C.2      58   U60      -0.1126
   1827 H5'        27.6719   42.5538   37.3189 H        58   U60       0.0679
   1828 H5''       27.0011   41.0265   37.9290 H        58   U60       0.0679
   1829 H4'        29.0418   40.7176   36.5365 H        58   U60       0.1174
   1830 H3'        27.2688   41.8147   34.3358 H        58   U60       0.0615
   1831 H2'        28.5665   40.4494   32.8447 H        58   U60       0.0972
   1832 H1'        28.4255   38.2540   34.4968 H        58   U60       0.1824
   1833 H3         25.4968   37.3568   30.9739 H        58   U60       0.3154
   1834 H5         23.3313   39.9086   33.5436 H        58   U60       0.1811
   1835 H6         25.3674   40.2336   34.7924 H        58   U60       0.2188
   1836 HO2'       30.6604   40.7010   33.8083 H        58   U60       0.4186
   1837 P          28.8300   43.8840   33.9030 P.3      59   U61       1.1662
   1838 OP1        29.7820   44.9360   34.3180 O.co2    59   U61      -0.7760
   1839 OP2        27.3720   44.1570   33.9540 O.co2    59   U61      -0.7760
   1840 O5'        29.1940   43.4040   32.4170 O.3      59   U61      -0.4989
   1841 C5'        30.5360   42.9610   32.1150 C.3      59   U61       0.0558
   1842 C4'        30.6170   42.2980   30.7470 C.3      59   U61       0.1065
   1843 O4'        29.8140   41.0860   30.7340 O.3      59   U61      -0.3548
   1844 C3'        30.0660   43.1190   29.5930 C.3      59   U61       0.2022
   1845 O3'        31.0130   44.1000   29.1660 O.3      59   U61      -0.5246
   1846 C2'        29.8010   42.0300   28.5470 C.3      59   U61       0.0670
   1847 O2'        30.9770   41.6030   27.8790 O.3      59   U61      -0.6139
   1848 C1'        29.2520   40.9020   29.4340 C.3      59   U61       0.0674
   1849 N1         27.7320   40.8950   29.5400 N.am     59   U61       0.0418
   1850 C2         26.9870   40.1710   28.6130 C.2      59   U61       0.4687
   1851 O2         27.4870   39.5150   27.6950 O.2      59   U61      -0.5477
   1852 N3         25.6150   40.2560   28.7940 N.am     59   U61      -0.3549
   1853 C4         24.9310   40.9860   29.7710 C.2      59   U61       0.5952
   1854 O4         23.6960   40.9820   29.7950 O.2      59   U61      -0.5761
   1855 C5         25.7770   41.7060   30.6910 C.2      59   U61      -0.3635
   1856 C6         27.1070   41.6390   30.5450 C.2      59   U61      -0.1126
   1857 H5'        30.8501   42.2442   32.8737 H        59   U61       0.0679
   1858 H5''       31.2078   43.8192   32.1355 H        59   U61       0.0679
   1859 H4'        31.6550   42.0400   30.5370 H        59   U61       0.1174
   1860 H3'        29.1312   43.5984   29.8836 H        59   U61       0.0615
   1861 H2'        29.0481   42.3584   27.8305 H        59   U61       0.0972
   1862 H1'        29.5846   39.9434   29.0358 H        59   U61       0.1824
   1863 H3         25.0448   39.7309   28.1465 H        59   U61       0.3154
   1864 H5         25.3435   42.2920   31.4879 H        59   U61       0.1811
   1865 H6         27.7274   42.1872   31.2385 H        59   U61       0.2188
   1866 HO2'       31.3097   42.3158   27.3288 H        59   U61       0.4186
   1867 P          30.6120   45.6660   29.1750 P.3      60   G62       1.1662
   1868 OP1        31.8740   46.4490   29.1900 O.co2    60   G62      -0.7760
   1869 OP2        29.5880   45.8980   30.2180 O.co2    60   G62      -0.7760
   1870 O5'        29.8840   45.8720   27.7780 O.3      60   G62      -0.4989
   1871 C5'        30.6200   45.7640   26.5670 C.3      60   G62       0.0558
   1872 C4'        30.4510   47.0090   25.7100 C.3      60   G62       0.1065
   1873 O4'        29.5080   46.7600   24.6600 O.3      60   G62      -0.3548
   1874 C3'        29.9780   48.2690   26.4160 C.3      60   G62       0.2022
   1875 O3'        30.6690   49.3960   25.8380 O.3      60   G62      -0.5246
   1876 C2'        28.4770   48.2820   26.1170 C.3      60   G62       0.0670
   1877 O2'        27.9510   49.5890   26.0870 O.3      60   G62      -0.6139
   1878 C1'        28.4430   47.6710   24.7270 C.3      60   G62       0.0191
   1879 N9         27.2320   46.9330   24.3720 N.ar     60   G62       0.0492
   1880 C8         26.1650   46.6130   25.1800 C.ar     60   G62       0.1374
   1881 N7         25.2710   45.8680   24.5870 N.ar     60   G62      -0.5709
   1882 C5         25.7860   45.6560   23.3120 C.ar     60   G62       0.1744
   1883 C6         25.2460   44.9350   22.2090 C.2      60   G62       0.4770
   1884 O6         24.1840   44.3020   22.1530 O.2      60   G62      -0.5597
   1885 N1         26.0780   44.9840   21.0870 N.am     60   G62      -0.4787
   1886 C2         27.2840   45.6460   21.0300 C.2      60   G62       0.7657
   1887 N2         27.9480   45.5660   19.8630 N.pl3    60   G62      -0.9672
   1888 N3         27.7970   46.3450   22.0480 N.2      60   G62      -0.6323
   1889 C4         26.9970   46.2940   23.1630 C.ar     60   G62       0.1222
   1890 H5'        31.6763   45.6352   26.8030 H        60   G62       0.0679
   1891 H5''       30.2686   44.8953   26.0103 H        60   G62       0.0679
   1892 H4'        31.4135   47.2280   25.2478 H        60   G62       0.1174
   1893 H3'        30.1615   48.2073   27.4887 H        60   G62       0.0615
   1894 H2'        27.9334   47.6603   26.8284 H        60   G62       0.0972
   1895 H1'        28.6051   48.4585   23.9910 H        60   G62       0.2006
   1896 H8         26.0756   46.9452   26.2037 H        60   G62       0.1640
   1897 H1         25.7719   44.4977   20.2564 H        60   G62       0.3424
   1898 H21        27.5571   45.0398   19.0946 H        60   G62       0.4364
   1899 H22        28.8375   46.0321   19.7551 H        60   G62       0.4364
   1900 HO2'       28.5290   50.1553   25.5704 H        60   G62       0.4186
   1901 P          30.8860   50.7690   26.6490 P.3      61   A63       1.1662
   1902 OP1        32.2700   51.2310   26.3690 O.co2    61   A63      -0.7760
   1903 OP2        30.4190   50.5930   28.0560 O.co2    61   A63      -0.7760
   1904 O5'        29.8190   51.7300   25.9270 O.3      61   A63      -0.4989
   1905 C5'        30.2380   52.7900   25.1220 C.3      61   A63       0.0558
   1906 C4'        29.6320   52.7060   23.7450 C.3      61   A63       0.1065
   1907 O4'        29.0090   51.4390   23.5180 O.3      61   A63      -0.3548
   1908 C3'        28.5040   53.6510   23.4680 C.3      61   A63       0.2022
   1909 O3'        28.9920   54.9590   23.3010 O.3      61   A63      -0.5246
   1910 C2'        27.9710   53.0800   22.1570 C.3      61   A63       0.0670
   1911 O2'        28.6920   53.5720   21.0430 O.3      61   A63      -0.6139
   1912 C1'        28.2330   51.5800   22.3370 C.3      61   A63       0.0394
   1913 N9         27.0330   50.7710   22.4470 N.ar     61   A63      -0.0251
   1914 C8         26.1980   50.6760   23.5180 C.ar     61   A63       0.2006
   1915 N7         25.2260   49.8040   23.3570 N.ar     61   A63      -0.6073
   1916 C5         25.4240   49.3200   22.0860 C.ar     61   A63       0.0515
   1917 C6         24.7330   48.3660   21.3220 C.ar     61   A63       0.7009
   1918 N6         23.6480   47.7340   21.7540 N.pl3    61   A63      -0.9019
   1919 N1         25.2390   48.0360   20.1120 N.ar     61   A63      -0.7615
   1920 C2         26.3240   48.6900   19.6660 C.ar     61   A63       0.5875
   1921 N3         27.0610   49.6070   20.2960 N.ar     61   A63      -0.6997
   1922 C4         26.5550   49.8740   21.5210 C.ar     61   A63       0.3053
   1923 H5'        31.3240   52.7608   25.0340 H        61   A63       0.0679
   1924 H5''       29.9419   53.7306   25.5864 H        61   A63       0.0679
   1925 H4'        30.4144   52.8570   23.0013 H        61   A63       0.1174
   1926 H3'        27.7498   53.6077   24.2538 H        61   A63       0.0615
   1927 H2'        26.9047   53.2793   22.0500 H        61   A63       0.0972
   1928 H1'        28.8184   51.2233   21.4895 H        61   A63       0.2007
   1929 H8         26.3220   51.2621   24.4166 H        61   A63       0.1553
   1930 H2         26.6423   48.4407   18.6645 H        61   A63       0.0473
   1931 HO2'       28.1134   54.1124   20.5000 H        61   A63       0.4186
   1932 H61        23.2675   47.9483   22.6647 H        61   A63       0.4115
   1933 H62        23.2031   47.0389   21.1718 H        61   A63       0.4115
   1934 P          28.3780   56.1550   24.1760 P.3      62   U64       1.1662
   1935 OP1        29.2090   57.3590   23.9100 O.co2    62   U64      -0.7760
   1936 OP2        28.1870   55.6750   25.5710 O.co2    62   U64      -0.7760
   1937 O5'        26.9240   56.3700   23.5390 O.3      62   U64      -0.4989
   1938 C5'        26.7780   56.5050   22.1420 C.3      62   U64       0.0558
   1939 C4'        26.8040   57.9580   21.7420 C.3      62   U64       0.1065
   1940 O4'        27.1150   58.0630   20.3180 O.3      62   U64      -0.3548
   1941 C3'        25.4760   58.6980   21.9350 C.3      62   U64       0.2022
   1942 O3'        25.7390   60.0520   22.3450 O.3      62   U64      -0.5246
   1943 C2'        24.8830   58.6540   20.5270 C.3      62   U64       0.0670
   1944 O2'        23.9510   59.6820   20.3000 O.3      62   U64      -0.6139
   1945 C1'        26.1530   58.8870   19.7180 C.3      62   U64       0.0674
   1946 N1         26.0680   58.5810   18.2580 N.am     62   U64       0.0418
   1947 C2         26.8100   59.3460   17.3680 C.2      62   U64       0.4687
   1948 O2         27.5830   60.2380   17.7090 O.2      62   U64      -0.5477
   1949 N3         26.6040   59.0400   16.0530 N.am     62   U64      -0.3549
   1950 C4         25.8030   58.0510   15.5420 C.2      62   U64       0.5952
   1951 O4         25.7610   57.8810   14.3360 O.2      62   U64      -0.5761
   1952 C5         25.0700   57.2950   16.5160 C.2      62   U64      -0.3635
   1953 C6         25.2080   57.5940   17.8080 C.2      62   U64      -0.1126
   1954 H5'        25.8274   56.0671   21.8377 H        62   U64       0.0679
   1955 H5''       27.5923   55.9798   21.6428 H        62   U64       0.0679
   1956 H4'        27.5799   58.4685   22.3125 H        62   U64       0.1174
   1957 H3'        24.8356   58.1837   22.6516 H        62   U64       0.0615
   1958 H2'        24.4519   57.6764   20.3112 H        62   U64       0.0972
   1959 H1'        26.4586   59.9262   19.8396 H        62   U64       0.1824
   1960 H3         27.0984   59.6073   15.3794 H        62   U64       0.3154
   1961 H5         24.4148   56.4940   16.2068 H        62   U64       0.1811
   1962 H6         24.6255   57.0442   18.5324 H        62   U64       0.2188
   1963 HO2'       23.1026   59.4338   20.6745 H        62   U64       0.4186
   1964 P          25.0010   60.6830   23.6070 P.3      63   U65       1.1662
   1965 OP1        25.8870   60.4500   24.7730 O.co2    63   U65      -0.7760
   1966 OP2        23.5920   60.2090   23.6400 O.co2    63   U65      -0.7760
   1967 O5'        24.9860   62.2440   23.2740 O.3      63   U65      -0.4989
   1968 C5'        24.5460   62.7160   22.0110 C.3      63   U65       0.0558
   1969 C4'        25.6180   63.5720   21.3780 C.3      63   U65       0.1065
   1970 O4'        26.3950   62.7610   20.4630 O.3      63   U65      -0.3548
   1971 C3'        25.1080   64.7170   20.5290 C.3      63   U65       0.2022
   1972 O3'        24.8370   65.8390   21.3260 O.3      63   U65      -0.5246
   1973 C2'        26.2860   64.9500   19.5900 C.3      63   U65       0.0670
   1974 O2'        27.3460   65.6720   20.1830 O.3      63   U65      -0.6139
   1975 C1'        26.7190   63.5250   19.3060 C.3      63   U65       0.0674
   1976 N1         26.0520   62.9240   18.0760 N.am     63   U65       0.0418
   1977 C2         26.5750   63.2090   16.8270 C.2      63   U65       0.4687
   1978 O2         27.5470   63.9430   16.6550 O.2      63   U65      -0.5477
   1979 N3         25.8930   62.6240   15.7680 N.am     63   U65      -0.3549
   1980 C4         24.7780   61.7930   15.8360 C.2      63   U65       0.5952
   1981 O4         24.2980   61.3240   14.8060 O.2      63   U65      -0.5761
   1982 C5         24.2790   61.5610   17.1680 C.2      63   U65      -0.3635
   1983 C6         24.9210   62.1140   18.2120 C.2      63   U65      -0.1126
   1984 H5'        24.3328   61.8663   21.3624 H        63   U65       0.0679
   1985 H5''       23.6402   63.3081   22.1414 H        63   U65       0.0679
   1986 H4'        26.2723   63.9643   22.1565 H        63   U65       0.1174
   1987 H3'        24.2217   64.4178   19.9695 H        63   U65       0.0615
   1988 H2'        25.9547   65.4393   18.6741 H        63   U65       0.0972
   1989 H1'        27.7996   63.5074   19.1641 H        63   U65       0.1824
   1990 H3         26.2461   62.8242   14.8432 H        63   U65       0.3154
   1991 H5         23.4015   60.9514   17.3254 H        63   U65       0.1811
   1992 H6         24.5438   61.9227   19.2057 H        63   U65       0.2188
   1993 HO2'       27.5987   65.2498   21.0073 H        63   U65       0.4186
   1994 P          23.6670   66.8530   20.9240 P.3      64   U66       1.1662
   1995 OP1        23.5500   67.8440   22.0210 O.co2    64   U66      -0.7760
   1996 OP2        22.4810   66.0710   20.5190 O.co2    64   U66      -0.7760
   1997 O5'        24.2480   67.5820   19.6110 O.3      64   U66      -0.4989
   1998 C5'        25.3500   68.5080   19.7200 C.3      64   U66       0.0558
   1999 C4'        25.8230   68.9980   18.3580 C.3      64   U66       0.1065
   2000 O4'        26.3970   67.8980   17.6040 O.3      64   U66      -0.3548
   2001 C3'        24.7430   69.5470   17.4410 C.3      64   U66       0.2022
   2002 O3'        24.4160   70.8730   17.7670 O.3      64   U66      -0.5246
   2003 C2'        25.4100   69.4270   16.0680 C.3      64   U66       0.0670
   2004 O2'        26.3410   70.4650   15.7700 O.3      64   U66      -0.6139
   2005 C1'        26.1100   68.0710   16.2030 C.3      64   U66       0.0674
   2006 N1         25.2330   66.9040   15.6910 N.am     64   U66       0.0418
   2007 C2         25.0010   66.7610   14.3190 C.2      64   U66       0.4687
   2008 O2         25.4870   67.4860   13.4680 O.2      64   U66      -0.5477
   2009 N3         24.1410   65.7400   13.9870 N.am     64   U66      -0.3549
   2010 C4         23.5140   64.8510   14.8550 C.2      64   U66       0.5952
   2011 O4         22.7750   63.9820   14.4080 O.2      64   U66      -0.5761
   2012 C5         23.7790   65.0730   16.2510 C.2      64   U66      -0.3635
   2013 C6         24.6060   66.0670   16.6080 C.2      64   U66      -0.1126
   2014 H5'        26.1795   68.0096   20.2216 H        64   U66       0.0679
   2015 H5''       25.0368   69.3646   20.3168 H        64   U66       0.0679
   2016 H4'        26.5858   69.7630   18.5031 H        64   U66       0.1174
   2017 H3'        23.8544   68.9173   17.4852 H        64   U66       0.0615
   2018 H2'        24.6492   69.3760   15.2891 H        64   U66       0.0972
   2019 H1'        27.0452   68.0911   15.6435 H        64   U66       0.1824
   2020 H3         23.9425   65.6224   13.0037 H        64   U66       0.3154
   2021 H5         23.3184   64.4479   17.0017 H        64   U66       0.1811
   2022 H6         24.7943   66.2252   17.6596 H        64   U66       0.2188
   2023 HO2'       26.1603   70.8161   14.8950 H        64   U66       0.4186
   2024 P          22.9280   71.4180   17.5300 P.3      65   G67       1.1662
   2025 OP1        22.8710   72.7810   18.1130 O.co2    65   G67      -0.7760
   2026 OP2        21.9700   70.3850   17.9760 O.co2    65   G67      -0.7760
   2027 O5'        22.8190   71.5180   15.9430 O.3      65   G67      -0.4989
   2028 C5'        23.4670   72.5790   15.2550 C.3      65   G67       0.0558
   2029 C4'        23.4860   72.3320   13.7640 C.3      65   G67       0.1065
   2030 O4'        24.0610   71.0270   13.4940 O.3      65   G67      -0.3548
   2031 C3'        22.1290   72.2380   13.1010 C.3      65   G67       0.2022
   2032 O3'        21.5450   73.4850   12.8990 O.3      65   G67      -0.5246
   2033 C2'        22.5020   71.5630   11.7970 C.3      65   G67       0.0670
   2034 O2'        23.1580   72.4360   10.8900 O.3      65   G67      -0.6139
   2035 C1'        23.4510   70.4870   12.3170 C.3      65   G67       0.0191
   2036 N9         22.7500   69.2350   12.6480 N.ar     65   G67       0.0492
   2037 C8         22.3960   68.7690   13.9000 C.ar     65   G67       0.1374
   2038 N7         21.7290   67.6390   13.8700 N.ar     65   G67      -0.5709
   2039 C5         21.5800   67.3680   12.5060 C.ar     65   G67       0.1744
   2040 C6         20.9460   66.2730   11.8340 C.2      65   G67       0.4770
   2041 O6         20.3730   65.2920   12.3250 O.2      65   G67      -0.5597
   2042 N1         21.0340   66.3920   10.4490 N.am     65   G67      -0.4787
   2043 C2         21.6680   67.4190    9.7880 C.2      65   G67       0.7657
   2044 N2         21.6520   67.3680    8.4570 N.pl3    65   G67      -0.9672
   2045 N3         22.2320   68.4590   10.3920 N.2      65   G67      -0.6323
   2046 C4         22.1830   68.3540   11.7470 C.ar     65   G67       0.1222
   2047 H5'        22.9351   73.5093   15.4545 H        65   G67       0.0679
   2048 H5''       24.4915   72.6675   15.6165 H        65   G67       0.0679
   2049 H4'        24.0805   73.1025   13.2730 H        65   G67       0.1174
   2050 H3'        21.4658   71.5983   13.6832 H        65   G67       0.0615
   2051 H2'        21.6255   71.1118   11.3320 H        65   G67       0.0972
   2052 H1'        24.2183   70.2870   11.5691 H        65   G67       0.2006
   2053 H8         22.6444   69.2853   14.8155 H        65   G67       0.1640
   2054 H1         20.6008   65.6718    9.8889 H        65   G67       0.3424
   2055 H21        21.2081   66.5923    7.9865 H        65   G67       0.4364
   2056 H22        22.0838   68.1051    7.9182 H        65   G67       0.4364
   2057 HO2'       23.4868   71.9319   10.1421 H        65   G67       0.4186
   2058 P          19.9510   73.6180   13.0020 P.3      66   G68       1.1662
   2059 OP1        19.6150   75.0580   12.9230 O.co2    66   G68      -0.7760
   2060 OP2        19.4910   72.8150   14.1670 O.co2    66   G68      -0.7760
   2061 O5'        19.4240   72.8910   11.6720 O.3      66   G68      -0.4989
   2062 C5'        19.8210   73.3630   10.3910 C.3      66   G68       0.0558
   2063 C4'        19.3600   72.4290    9.2880 C.3      66   G68       0.1065
   2064 O4'        19.9560   71.1120    9.4500 O.3      66   G68      -0.3548
   2065 C3'        17.8690   72.1570    9.2470 C.3      66   G68       0.2022
   2066 O3'        17.1740   73.2340    8.6310 O.3      66   G68      -0.5246
   2067 C2'        17.8310   70.8770    8.4110 C.3      66   G68       0.0670
   2068 O2'        17.9890   71.1100    7.0200 O.3      66   G68      -0.6139
   2069 C1'        19.0440   70.1250    8.9640 C.3      66   G68       0.0191
   2070 N9         18.6910   69.2040   10.0470 N.ar     66   G68       0.0492
   2071 C8         18.7330   69.4540   11.4010 C.ar     66   G68       0.1374
   2072 N7         18.3110   68.4600   12.1310 N.ar     66   G68      -0.5709
   2073 C5         17.9160   67.5020   11.2100 C.ar     66   G68       0.1744
   2074 C6         17.4000   66.1900   11.4120 C.2      66   G68       0.4770
   2075 O6         17.1360   65.6230   12.4880 O.2      66   G68      -0.5597
   2076 N1         17.1180   65.5480   10.1890 N.am     66   G68      -0.4787
   2077 C2         17.3370   66.0950    8.9330 C.2      66   G68       0.7657
   2078 N2         17.0030   65.3340    7.8810 N.pl3    66   G68      -0.9672
   2079 N3         17.8420   67.3110    8.7350 N.2      66   G68      -0.6323
   2080 C4         18.1110   67.9580    9.9140 C.ar     66   G68       0.1222
   2081 H5'        19.3853   74.3484   10.2259 H        66   G68       0.0679
   2082 H5''       20.9076   73.4430   10.3606 H        66   G68       0.0679
   2083 H4'        19.6695   72.8396    8.3269 H        66   G68       0.1174
   2084 H3'        17.4834   71.9734   10.2499 H        66   G68       0.0615
   2085 H2'        16.9142   70.3201    8.6045 H        66   G68       0.0972
   2086 H1'        19.5175   69.5654    8.1573 H        66   G68       0.2006
   2087 H8         19.0829   70.3865   11.8187 H        66   G68       0.1640
   2088 H1         16.7263   64.6180   10.2304 H        66   G68       0.3424
   2089 H21        16.6167   64.4122    8.0268 H        66   G68       0.4364
   2090 H22        17.1376   65.6824    6.9426 H        66   G68       0.4364
   2091 HO2'       17.2229   71.5817    6.6850 H        66   G68       0.4186
   2092 P          15.7180   73.6610    9.1530 P.3      67   U69       1.1662
   2093 OP1        15.3820   74.9640    8.5340 O.co2    67   U69      -0.7760
   2094 OP2        15.6860   73.5170   10.6320 O.co2    67   U69      -0.7760
   2095 O5'        14.7740   72.5320    8.5340 O.3      67   U69      -0.4989
   2096 C5'        14.6490   72.3930    7.1210 C.3      67   U69       0.0558
   2097 C4'        13.8880   71.1270    6.7650 C.3      67   U69       0.1065
   2098 O4'        14.6540   69.9500    7.1550 O.3      67   U69      -0.3548
   2099 C3'        12.5670   70.9390    7.4880 C.3      67   U69       0.2022
   2100 O3'        11.5460   71.7350    6.9230 O.3      67   U69      -0.5246
   2101 C2'        12.3310   69.4480    7.2870 C.3      67   U69       0.0670
   2102 O2'        11.8730   69.1300    5.9800 O.3      67   U69      -0.6139
   2103 C1'        13.7460   68.9020    7.5030 C.3      67   U69       0.0674
   2104 N1         13.9990   68.4520    8.9300 N.am     67   U69       0.0418
   2105 C2         13.6030   67.1690    9.3230 C.2      67   U69       0.4687
   2106 O2         13.0710   66.3740    8.5750 O.2      67   U69      -0.5477
   2107 N3         13.8650   66.8580   10.6430 N.am     67   U69      -0.3549
   2108 C4         14.4590   67.6840   11.5940 C.2      67   U69       0.5952
   2109 O4         14.6500   67.2660   12.7280 O.2      67   U69      -0.5761
   2110 C5         14.8190   69.0040   11.1220 C.2      67   U69      -0.3635
   2111 C6         14.5720   69.3370    9.8430 C.2      67   U69      -0.1126
   2112 H5'        14.1128   73.2549    6.7240 H        67   U69       0.0679
   2113 H5''       15.6427   72.3519    6.6750 H        67   U69       0.0679
   2114 H4'        13.7151   71.1026    5.6891 H        67   U69       0.1174
   2115 H3'        12.6802   71.1649    8.5483 H        67   U69       0.0615
   2116 H2'        11.6471   69.0595    8.0416 H        67   U69       0.0972
   2117 H1'        13.9059   68.0579    6.8321 H        67   U69       0.1824
   2118 H3         13.5976   65.9340   10.9510 H        67   U69       0.3154
   2119 H5         15.2816   69.7147   11.7908 H        67   U69       0.1811
   2120 H6         14.8280   70.3315    9.5086 H        67   U69       0.2188
   2121 HO2'       10.9864   69.4773    5.8578 H        67   U69       0.4186
   2122 P          10.4630   72.4080    7.8860 P.3      68   G70       1.1662
   2123 OP1         9.6080   73.3010    7.0630 O.co2    68   G70      -0.7760
   2124 OP2        11.1760   72.9510    9.0660 O.co2    68   G70      -0.7760
   2125 O5'         9.6020   71.1540    8.3840 O.3      68   G70      -0.4989
   2126 C5'         8.7310   70.4910    7.4860 C.3      68   G70       0.0558
   2127 C4'         8.1900   69.2150    8.0880 C.3      68   G70       0.1065
   2128 O4'         9.2930   68.3140    8.4170 O.3      68   G70      -0.3548
   2129 C3'         7.4340   69.3780    9.3950 C.3      68   G70       0.2022
   2130 O3'         6.0920   69.8140    9.1670 O.3      68   G70      -0.5246
   2131 C2'         7.5140   67.9500    9.9420 C.3      68   G70       0.0670
   2132 O2'         6.6160   67.0620    9.2850 O.3      68   G70      -0.6139
   2133 C1'         8.9800   67.5910    9.6060 C.3      68   G70       0.0191
   2134 N9          9.9280   67.9860   10.6670 N.ar     68   G70       0.0492
   2135 C8         10.4990   69.2290   10.8400 C.ar     68   G70       0.1374
   2136 N7         11.1850   69.3490   11.9440 N.ar     68   G70      -0.5709
   2137 C5         11.0790   68.1090   12.5460 C.ar     68   G70       0.1744
   2138 C6         11.6440   67.6360   13.7600 C.2      68   G70       0.4770
   2139 O6         12.3670   68.2450   14.5550 O.2      68   G70      -0.5597
   2140 N1         11.2990   66.3130   14.0150 N.am     68   G70      -0.4787
   2141 C2         10.5250   65.5310   13.1890 C.2      68   G70       0.7657
   2142 N2         10.3050   64.2790   13.5990 N.pl3    68   G70      -0.9672
   2143 N3         10.0020   65.9520   12.0350 N.2      68   G70      -0.6323
   2144 C4         10.2900   67.2590   11.7900 C.ar     68   G70       0.1222
   2145 H5'         7.8978   71.1517    7.2466 H        68   G70       0.0679
   2146 H5''        9.2736   70.2531    6.5710 H        68   G70       0.0679
   2147 H4'         7.5398   68.7283    7.3611 H        68   G70       0.1174
   2148 H3'         7.9552   70.0711   10.0553 H        68   G70       0.0615
   2149 H2'         7.3501   67.9387   11.0196 H        68   G70       0.0972
   2150 H1'         9.0629   66.5205    9.4183 H        68   G70       0.2006
   2151 H8         10.3885   70.0316   10.1259 H        68   G70       0.1640
   2152 H1         11.6416   65.8960   14.8687 H        68   G70       0.3424
   2153 H21        10.6991   63.9567   14.4713 H        68   G70       0.4364
   2154 H22         9.7445   63.6546   13.0368 H        68   G70       0.4364
   2155 HO2'        6.4368   66.3092    9.8531 H        68   G70       0.4186
   2156 P           5.3790   70.8480   10.1930 P.3      69   A71       1.1662
   2157 OP1         4.0850   71.2670    9.5970 O.co2    69   A71      -0.7760
   2158 OP2         6.3700   71.8770   10.5920 O.co2    69   A71      -0.7760
   2159 O5'         5.0780   69.9460   11.4840 O.3      69   A71      -0.4989
   2160 C5'         4.6090   70.5480   12.6960 C.3      69   A71       0.0558
   2161 C4'         4.1750   69.4880   13.6940 C.3      69   A71       0.1065
   2162 O4'         3.0790   68.7450   13.1310 O.3      69   A71      -0.3548
   2163 C3'         5.2340   68.4450   14.0260 C.3      69   A71       0.2022
   2164 O3'         6.0330   68.8680   15.1420 O.3      69   A71      -0.5246
   2165 C2'         4.4160   67.1850   14.3280 C.3      69   A71       0.0670
   2166 O2'         4.0180   67.0670   15.6800 O.3      69   A71      -0.6139
   2167 C1'         3.1990   67.3650   13.4460 C.3      69   A71       0.0394
   2168 N9          3.2340   66.6000   12.2100 N.ar     69   A71      -0.0251
   2169 C8          3.2730   67.1080   10.9450 C.ar     69   A71       0.2006
   2170 N7          3.1920   66.2040   10.0070 N.ar     69   A71      -0.6073
   2171 C5          3.0510   65.0200   10.6980 C.ar     69   A71       0.0515
   2172 C6          2.9020   63.6890   10.2610 C.ar     69   A71       0.7009
   2173 N6          2.8990   63.3550    8.9660 N.pl3    69   A71      -0.9019
   2174 N1          2.8760   62.7060   11.2060 N.ar     69   A71      -0.7615
   2175 C2          2.9090   63.0630   12.5050 C.ar     69   A71       0.5875
   2176 N3          3.0130   64.2960   13.0350 N.ar     69   A71      -0.6997
   2177 C4          3.0790   65.2380   12.0630 C.ar     69   A71       0.3053
   2178 H5'         5.4113   71.1425   13.1330 H        69   A71       0.0679
   2179 H5''        3.7628   71.1971   12.4706 H        69   A71       0.0679
   2180 H4'         3.8465   69.9725   14.6135 H        69   A71       0.1174
   2181 H3'         5.8708   68.2742   13.1580 H        69   A71       0.0615
   2182 H2'         4.9705   66.2976   14.0230 H        69   A71       0.0972
   2183 H1'         2.3172   67.0638   14.0116 H        69   A71       0.2007
   2184 H8          3.3629   68.1641   10.7378 H        69   A71       0.1553
   2185 H2          2.8433   62.2521   13.2153 H        69   A71       0.0473
   2186 HO2'        4.5485   66.3940   16.1126 H        69   A71       0.4186
   2187 H61         2.9622   64.0731    8.2586 H        69   A71       0.4115
   2188 H62         2.8335   62.3842    8.6953 H        69   A71       0.4115
   2189 P           7.6050   68.5450   15.1680 P.3      70   A72       1.1662
   2190 OP1         8.2240   69.2440   16.3180 O.co2    70   A72      -0.7760
   2191 OP2         8.1360   68.7750   13.8080 O.co2    70   A72      -0.7760
   2192 O5'         7.6190   66.9830   15.4630 O.3      70   A72      -0.4989
   2193 C5'         7.0260   66.4810   16.6740 C.3      70   A72       0.0558
   2194 C4'         6.8840   64.9740   16.6170 C.3      70   A72       0.1065
   2195 O4'         5.9320   64.6180   15.5910 O.3      70   A72      -0.3548
   2196 C3'         8.1570   64.2710   16.2590 C.3      70   A72       0.2022
   2197 O3'         8.8780   63.9530   17.4420 O.3      70   A72      -0.5246
   2198 C2'         7.6930   63.0410   15.4710 C.3      70   A72       0.0670
   2199 O2'         7.5260   61.8760   16.2660 O.3      70   A72      -0.6139
   2200 C1'         6.3650   63.4850   14.8790 C.3      70   A72       0.0394
   2201 N9          6.4160   63.8060   13.4490 N.ar     70   A72      -0.0251
   2202 C8          6.6720   65.0290   12.8780 C.ar     70   A72       0.2006
   2203 N7          6.5850   65.0400   11.5650 N.ar     70   A72      -0.6073
   2204 C5          6.2730   63.7250   11.2430 C.ar     70   A72       0.0515
   2205 C6          6.0900   63.0550   10.0020 C.ar     70   A72       0.7009
   2206 N6          6.1540   63.6680    8.8250 N.pl3    70   A72      -0.9019
   2207 N1          5.8240   61.7210   10.0310 N.ar     70   A72      -0.7615
   2208 C2          5.7430   61.0950   11.2270 C.ar     70   A72       0.5875
   2209 N3          5.9010   61.6100   12.4530 N.ar     70   A72      -0.6997
   2210 C4          6.1700   62.9460   12.3950 C.ar     70   A72       0.3053
   2211 H5'         7.6593   66.7487   17.5198 H        70   A72       0.0679
   2212 H5''        6.0416   66.9302   16.8054 H        70   A72       0.0679
   2213 H4'         6.5290   64.6086   17.5806 H        70   A72       0.1174
   2214 H3'         8.7638   64.9112   15.6187 H        70   A72       0.0615
   2215 H2'         8.3998   62.8353   14.6671 H        70   A72       0.0972
   2216 H1'         5.6379   62.6866   15.0270 H        70   A72       0.2007
   2217 H8          6.9230   65.9057   13.4567 H        70   A72       0.1553
   2218 H2          5.5213   60.0387   11.1882 H        70   A72       0.0473
   2219 H61         6.3455   64.6587    8.7813 H        70   A72       0.4115
   2220 H62         6.0112   63.1433    7.9739 H        70   A72       0.4115
   2221 HO2'        7.8590   61.1126   15.7885 H        70   A72       0.4186
   2222 P          10.4730   64.1060   17.4590 P.3      71   A73       1.1662
   2223 OP1        10.9990   63.6330   18.7810 O.co2    71   A73      -0.7760
   2224 OP2        10.8140   65.4630   16.9550 O.co2    71   A73      -0.7760
   2225 O5'        10.9200   63.0530   16.3600 O.3      71   A73      -0.4989
   2226 C5'        10.8140   61.6660   16.6270 C.3      71   A73       0.0558
   2227 C4'        11.8290   60.9140   15.8160 C.3      71   A73       0.1065
   2228 O4'        11.7330   61.3230   14.4570 O.3      71   A73      -0.3548
   2229 C3'        13.2520   61.1960   16.2150 C.3      71   A73       0.2022
   2230 O3'        13.6700   60.1700   17.0700 O.3      71   A73      -0.5246
   2231 C2'        14.0280   61.2230   14.8880 C.3      71   A73       0.0670
   2232 O2'        14.9620   60.1700   14.7790 O.3      71   A73      -0.6139
   2233 C1'        12.9390   61.0360   13.8370 C.3      71   A73       0.0394
   2234 N9         13.0460   61.9000   12.6680 N.ar     71   A73      -0.0251
   2235 C8         13.2530   63.2520   12.6530 C.ar     71   A73       0.2006
   2236 N7         13.2120   63.7770   11.4560 N.ar     71   A73      -0.6073
   2237 C5         12.8740   62.7170   10.6430 C.ar     71   A73       0.0515
   2238 C6         12.6690   62.6160    9.2540 C.ar     71   A73       0.7009
   2239 N6         12.7980   63.6500    8.4290 N.pl3    71   A73      -0.9019
   2240 N1         12.4130   61.3800    8.7330 N.ar     71   A73      -0.7615
   2241 C2         12.3530   60.3220    9.5640 C.ar     71   A73       0.5875
   2242 N3         12.5080   60.3030   10.8910 N.ar     71   A73      -0.6997
   2243 C4         12.7660   61.5490   11.3730 C.ar     71   A73       0.3053
   2244 H5'        10.9931   61.4868   17.6872 H        71   A73       0.0679
   2245 H5''        9.8135   61.3218   16.3651 H        71   A73       0.0679
   2246 H4'        11.6347   59.8440   15.8896 H        71   A73       0.1174
   2247 H3'        13.3223   62.1613   16.7164 H        71   A73       0.0615
   2248 H2'        14.5226   62.1853   14.7561 H        71   A73       0.0972
   2249 H1'        12.9333   59.9958   13.5115 H        71   A73       0.2007
   2250 H8         13.4334   63.8317   13.5462 H        71   A73       0.1553
   2251 H2         12.1544   59.3678    9.0988 H        71   A73       0.0473
   2252 HO2'       15.8504   60.5320   14.7442 H        71   A73       0.4186
   2253 H61        12.7353   64.5751    8.8295 H        71   A73       0.4115
   2254 H62        12.9527   63.5159    7.4400 H        71   A73       0.4115
   2255 P          14.0310   60.4850   18.5870 P.3      72   U74       1.1662
   2256 OP1        14.4260   59.2080   19.2330 O.co2    72   U74      -0.7760
   2257 OP2        12.9420   61.3110   19.1850 O.co2    72   U74      -0.7760
   2258 O5'        15.2970   61.4380   18.3890 O.3      72   U74      -0.4989
   2259 C5'        16.3710   61.3900   19.2560 C.3      72   U74       0.0558
   2260 C4'        17.6640   61.2630   18.4800 C.3      72   U74       0.1065
   2261 O4'        18.7700   61.1960   19.4040 O.3      72   U74      -0.3548
   2262 C3'        17.8010   60.0230   17.6120 C.3      72   U74       0.2022
   2263 O3'        18.7630   60.3000   16.5870 O.3      72   U74      -0.5246
   2264 C2'        18.3430   58.9990   18.6240 C.3      72   U74       0.0670
   2265 O2'        19.1220   57.9840   18.0190 O.3      72   U74      -0.6139
   2266 C1'        19.2390   59.8730   19.5020 C.3      72   U74       0.0674
   2267 N1         19.2880   59.4770   20.9550 N.am     72   U74       0.0418
   2268 C2         20.4800   58.9680   21.4750 C.2      72   U74       0.4687
   2269 O2         21.4920   58.7650   20.7970 O.2      72   U74      -0.5477
   2270 N3         20.4370   58.6560   22.8160 N.am     72   U74      -0.3549
   2271 C4         19.3450   58.7400   23.6530 C.2      72   U74       0.5952
   2272 O4         19.4620   58.4020   24.8280 O.2      72   U74      -0.5761
   2273 C5         18.1380   59.2600   23.0390 C.2      72   U74      -0.3635
   2274 C6         18.1540   59.5940   21.7440 C.2      72   U74      -0.1126
   2275 H5'        16.2619   60.5301   19.9168 H        72   U74       0.0679
   2276 H5''       16.3954   62.3025   19.8517 H        72   U74       0.0679
   2277 H4'        17.7844   62.1458   17.8521 H        72   U74       0.1174
   2278 H3'        16.8429   59.7125   17.1951 H        72   U74       0.0615
   2279 H2'        17.5314   58.5666   19.2091 H        72   U74       0.0972
   2280 H1'        20.2523   59.8372   19.1018 H        72   U74       0.1824
   2281 H3         21.2985   58.3306   23.2307 H        72   U74       0.3154
   2282 H5         17.2360   59.3762   23.6214 H        72   U74       0.1811
   2283 H6         17.2468   59.9701   21.2947 H        72   U74       0.2188
   2284 HO2'       18.7356   57.7446   17.1734 H        72   U74       0.4186
   2285 P          18.4880   60.0590   15.0200 P.3      73   U75       1.1662
   2286 OP1        19.8210   60.0250   14.3720 O.co2    73   U75      -0.7760
   2287 OP2        17.4850   61.0310   14.5680 O.co2    73   U75      -0.7760
   2288 O5'        17.8290   58.6110   14.9290 O.3      73   U75      -0.4989
   2289 C5'        18.6340   57.4820   14.6030 C.3      73   U75       0.0558
   2290 C4'        17.8400   56.4500   13.8290 C.3      73   U75       0.1065
   2291 O4'        16.6810   56.0420   14.5960 O.3      73   U75      -0.3548
   2292 C3'        17.3090   56.9170   12.4620 C.3      73   U75       0.2022
   2293 O3'        17.6250   55.9610   11.4860 O.3      73   U75      -0.5246
   2294 C2'        15.7910   57.0020   12.6690 C.3      73   U75       0.0670
   2295 O2'        15.0690   56.6750   11.4940 O.3      73   U75      -0.6139
   2296 C1'        15.5800   55.9380   13.7280 C.3      73   U75       0.0674
   2297 N1         14.3210   56.0820   14.4860 N.am     73   U75       0.0418
   2298 C2         13.2830   55.2000   14.2370 C.2      73   U75       0.4687
   2299 O2         13.3640   54.2560   13.4800 O.2      73   U75      -0.5477
   2300 N3         12.1680   55.4030   14.9790 N.am     73   U75      -0.3549
   2301 C4         11.9500   56.3870   15.8940 C.2      73   U75       0.5952
   2302 O4         10.8680   56.4360   16.4610 O.2      73   U75      -0.5761
   2303 C5         13.0610   57.2840   16.1090 C.2      73   U75      -0.3635
   2304 C6         14.1830   57.1080   15.4030 C.2      73   U75      -0.1126
   2305 H5'        19.4778   57.8102   13.9960 H        73   U75       0.0679
   2306 H5''       19.0078   57.0310   15.5222 H        73   U75       0.0679
   2307 H4'        18.4729   55.5766   13.6717 H        73   U75       0.1174
   2308 H3'        17.7200   57.8915   12.1982 H        73   U75       0.0615
   2309 H2'        15.5033   57.9850   13.0419 H        73   U75       0.0972
   2310 H1'        15.5962   54.9574   13.2522 H        73   U75       0.1824
   2311 H3         11.4115   54.7491   14.8370 H        73   U75       0.3154
   2312 H5         12.9869   58.0852   16.8294 H        73   U75       0.1811
   2313 H6         15.0077   57.7888   15.5537 H        73   U75       0.2188
   2314 HO2'       15.4267   55.8703   11.1116 H        73   U75       0.4186
   2315 P          18.3640   56.3830   10.1470 P.3      74   C76       1.1662
   2316 OP1        18.7270   55.1310    9.4210 O.co2    74   C76      -0.7760
   2317 OP2        19.4250   57.3570   10.4870 O.co2    74   C76      -0.7760
   2318 O5'        17.2140   57.1430    9.3320 O.3      74   C76      -0.4989
   2319 C5'        16.8830   56.7150    8.0140 C.3      74   C76       0.0558
   2320 C4'        16.2150   57.8170    7.2110 C.3      74   C76       0.1065
   2321 O4'        15.3280   58.5910    8.0580 O.3      74   C76      -0.3548
   2322 C3'        17.1650   58.8190    6.5970 C.3      74   C76       0.2022
   2323 O3'        17.6110   58.3420    5.3260 O.3      74   C76      -0.5246
   2324 C2'        16.2960   60.0910    6.5000 C.3      74   C76       0.0670
   2325 O2'        15.4350   60.1140    5.3720 O.3      74   C76      -0.6139
   2326 C1'        15.4450   59.9810    7.7560 C.3      74   C76       0.0066
   2327 N1         15.9520   60.7430    8.9700 N.am     74   C76      -0.0484
   2328 C2         16.0550   62.1640    8.9380 C.2      74   C76       0.7538
   2329 O2         15.8210   62.7810    7.8910 O.2      74   C76      -0.6252
   2330 N3         16.4380   62.8190   10.0640 N.2      74   C76      -0.7584
   2331 C4         16.6140   62.1430   11.2100 C.2      74   C76       0.8185
   2332 N4         16.9640   62.8390   12.2960 N.pl3    74   C76      -0.9530
   2333 C5         16.4770   60.7120   11.2780 C.2      74   C76      -0.5215
   2334 C6         16.1630   60.0660   10.1480 C.2      74   C76       0.0053
   2335 H5'        16.2030   55.8657    8.0799 H        74   C76       0.0679
   2336 H5''       17.7933   56.4032    7.5019 H        74   C76       0.0679
   2337 H4'        15.6268   57.3608    6.4148 H        74   C76       0.1174
   2338 H3'        18.0150   58.9899    7.2576 H        74   C76       0.0615
   2339 H2'        16.9167   60.9865    6.5308 H        74   C76       0.0972
   2340 H1'        14.4494   60.3559    7.5185 H        74   C76       0.2029
   2341 H5         16.6221   60.1790   12.2060 H        74   C76       0.1928
   2342 H6         16.0735   58.9898   10.1621 H        74   C76       0.1958
   2343 H41        17.0731   63.8415   12.2399 H        74   C76       0.4234
   2344 H42        17.1194   62.3624   13.1728 H        74   C76       0.4234
   2345 HO2'       15.9587   60.1833    4.5704 H        74   C76       0.4186
   2346 P          19.1730   58.2970    4.9880 P.3      75   C77       1.1662
   2347 OP1        19.3350   57.5610    3.7110 O.co2    75   C77      -0.7760
   2348 OP2        19.9340   57.8370    6.1790 O.co2    75   C77      -0.7760
   2349 O5'        19.4880   59.8530    4.7710 O.3      75   C77      -0.4989
   2350 C5'        18.9940   60.5220    3.5910 C.3      75   C77       0.0558
   2351 C4'        19.3830   61.9860    3.5740 C.3      75   C77       0.1065
   2352 O4'        18.6490   62.6580    4.6230 O.3      75   C77      -0.3548
   2353 C3'        20.8460   62.3030    3.8990 C.3      75   C77       0.2022
   2354 O3'        21.6930   62.1590    2.7550 O.3      75   C77      -0.5246
   2355 C2'        20.7270   63.7550    4.3780 C.3      75   C77       0.0670
   2356 O2'        20.5140   64.6800    3.3180 O.3      75   C77      -0.6139
   2357 C1'        19.4620   63.6640    5.2120 C.3      75   C77       0.0066
   2358 N1         19.6830   63.3430    6.6530 N.am     75   C77      -0.0484
   2359 C2         20.0110   64.3690    7.5520 C.2      75   C77       0.7538
   2360 O2         20.1660   65.5120    7.1270 O.2      75   C77      -0.6252
   2361 N3         20.1370   64.0720    8.8810 N.2      75   C77      -0.7584
   2362 C4         19.8810   62.8310    9.3190 C.2      75   C77       0.8185
   2363 N4         19.9750   62.5900   10.6290 N.pl3    75   C77      -0.9530
   2364 C5         19.5220   61.7840    8.4270 C.2      75   C77      -0.5215
   2365 C6         19.4080   62.0870    7.1200 C.2      75   C77       0.0053
   2366 H5'        19.4101   60.0356    2.7088 H        75   C77       0.0679
   2367 H5''       17.9073   60.4413    3.5637 H        75   C77       0.0679
   2368 H4'        19.1213   62.4214    2.6096 H        75   C77       0.1174
   2369 H3'        21.1980   61.6663    4.7107 H        75   C77       0.0615
   2370 H2'        21.5835   64.0422    4.9879 H        75   C77       0.0972
   2371 H1'        18.9355   64.6162    5.1467 H        75   C77       0.2029
   2372 H5         19.3468   60.7803    8.7852 H        75   C77       0.1928
   2373 H6         19.0928   61.3222    6.4257 H        75   C77       0.1958
   2374 H41        20.2318   63.3338   11.2622 H        75   C77       0.4234
   2375 H42        19.7893   61.6639   10.9867 H        75   C77       0.4234
   2376 HO2'       21.3094   64.7445    2.7843 H        75   C77       0.4186
   2377 P          23.2450   61.7890    2.9520 P.3      76   A78       1.1662
   2378 OP1        23.8610   61.6520    1.6100 O.co2    76   A78      -0.7760
   2379 OP2        23.3520   60.6660    3.9190 O.co2    76   A78      -0.7760
   2380 O5'        23.8470   63.0860    3.6780 O.3      76   A78      -0.4989
   2381 C5'        24.1610   64.2760    2.9510 C.3      76   A78       0.0558
   2382 C4'        24.8180   65.3060    3.8650 C.3      76   A78       0.1065
   2383 O4'        23.8730   65.7570    4.8680 O.3      76   A78      -0.3548
   2384 C3'        25.9880   64.7950    4.6840 C.3      76   A78       0.2022
   2385 O3'        27.1770   64.7640    3.9080 O.3      76   A78      -0.5246
   2386 C2'        26.0370   65.8170    5.8190 C.3      76   A78       0.0670
   2387 O2'        26.6300   67.0490    5.4600 O.3      76   A78      -0.6139
   2388 C1'        24.5600   66.0270    6.0870 C.3      76   A78       0.0394
   2389 N9         24.0510   65.1740    7.1670 N.ar     76   A78      -0.0251
   2390 C8         23.3640   63.9940    7.0520 C.ar     76   A78       0.2006
   2391 N7         23.0900   63.4210    8.2100 N.ar     76   A78      -0.6073
   2392 C5         23.6510   64.2720    9.1460 C.ar     76   A78       0.0515
   2393 C6         23.7090   64.2390   10.5630 C.ar     76   A78       0.7009
   2394 N6         23.1400   63.2920   11.3030 N.pl3    76   A78      -0.9019
   2395 N1         24.3720   65.2370   11.1890 N.ar     76   A78      -0.7615
   2396 C2         24.9280   66.2130   10.4480 C.ar     76   A78       0.5875
   2397 N3         24.9330   66.3610    9.1180 N.ar     76   A78      -0.6997
   2398 C4         24.2710   65.3470    8.5190 C.ar     76   A78       0.3053
   2399 H5'        23.2437   64.6964    2.5388 H        76   A78       0.0679
   2400 H5''       24.8425   64.0309    2.1364 H        76   A78       0.0679
   2401 H4'        25.1428   66.1589    3.2690 H        76   A78       0.1174
   2402 H3'        25.7683   63.8029    5.0783 H        76   A78       0.0615
   2403 H2'        26.5297   65.3947    6.6948 H        76   A78       0.0972
   2404 H1'        24.3974   67.0703    6.3577 H        76   A78       0.2007
   2405 H8         23.0733   63.5713    6.1016 H        76   A78       0.1553
   2406 H2         25.4414   66.9837   11.0037 H        76   A78       0.0473
   2407 HO2'       27.2548   67.3139    6.1391 H        76   A78       0.4186
   2408 H61        22.8377   63.6024   12.2153 H        76   A78       0.4115
   2409 H62        23.0203   62.3426   10.9800 H        76   A78       0.4115
   2410 P          28.2900   63.6380    4.1760 P.3      77   A79       1.1662
   2411 OP1        29.2790   63.7340    3.0760 O.co2    77   A79      -0.7760
   2412 OP2        27.6200   62.3450    4.4370 O.co2    77   A79      -0.7760
   2413 O5'        28.9520   64.1060    5.5720 O.3      77   A79      -0.4989
   2414 C5'        29.6920   65.3300    5.6640 C.3      77   A79       0.0558
   2415 C4'        29.9840   65.7070    7.1150 C.3      77   A79       0.1065
   2416 O4'        28.7440   65.8240    7.8630 O.3      77   A79      -0.3548
   2417 C3'        30.7700   64.6950    7.9150 C.3      77   A79       0.2022
   2418 O3'        32.1320   64.7410    7.6130 O.3      77   A79      -0.5246
   2419 C2'        30.4660   65.1340    9.3440 C.3      77   A79       0.0670
   2420 O2'        31.2300   66.2540    9.7620 O.3      77   A79      -0.6139
   2421 C1'        28.9820   65.4920    9.2350 C.3      77   A79       0.0394
   2422 N9         28.0990   64.3810    9.6190 N.ar     77   A79      -0.0251
   2423 C8         27.6090   63.3960    8.7990 C.ar     77   A79       0.2006
   2424 N7         26.9290   62.4660    9.4280 N.ar     77   A79      -0.6073
   2425 C5         26.9720   62.8610   10.7470 C.ar     77   A79       0.0515
   2426 C6         26.4030   62.3190   11.9120 C.ar     77   A79       0.7009
   2427 N6         25.6380   61.2320   11.9160 N.pl3    77   A79      -0.9019
   2428 N1         26.6550   62.9420   13.0840 N.ar     77   A79      -0.7615
   2429 C2         27.3930   64.0630   13.0780 C.ar     77   A79       0.5875
   2430 N3         27.9570   64.6870   12.0340 N.ar     77   A79      -0.6997
   2431 C4         27.7060   64.0300   10.8890 C.ar     77   A79       0.3053
   2432 H5'        30.6366   65.2121    5.1330 H        77   A79       0.0679
   2433 H5''       29.1177   66.1298    5.1965 H        77   A79       0.0679
   2434 H4'        30.5062   66.6635    7.1374 H        77   A79       0.1174
   2435 H3'        30.3800   63.6925    7.7391 H        77   A79       0.0615
   2436 H2'        30.6053   64.3016   10.0338 H        77   A79       0.0972
   2437 H1'        28.7698   66.3586    9.8612 H        77   A79       0.2007
   2438 H8         27.7686   63.3867    7.7309 H        77   A79       0.1553
   2439 H2         27.5538   64.5233   14.0417 H        77   A79       0.0473
   2440 HO2'       31.8714   65.9767   10.4202 H        77   A79       0.4186
   2441 H61        25.2232   61.4496   12.8108 H        77   A79       0.4115
   2442 H62        25.5164   60.4698   11.2646 H        77   A79       0.4115
   2443 P          33.0050   63.4010    7.7500 P.3      78   A80       1.1662
   2444 OP1        34.3120   63.6420    7.1000 O.co2    78   A80      -0.7760
   2445 OP2        32.1790   62.2450    7.3160 O.co2    78   A80      -0.7760
   2446 O5'        33.2130   63.2790    9.3400 O.3      78   A80      -0.4989
   2447 C5'        34.0220   64.2280   10.0330 C.3      78   A80       0.0558
   2448 C4'        33.7770   64.1780   11.5270 C.3      78   A80       0.1065
   2449 O4'        32.3660   64.3890   11.8110 O.3      78   A80      -0.3548
   2450 C3'        34.1050   62.8630   12.1970 C.3      78   A80       0.2022
   2451 O3'        35.4600   62.7760   12.4660 O.3      78   A80      -0.5246
   2452 C2'        33.2630   62.9510   13.4670 C.3      78   A80       0.0670
   2453 O2'        33.8540   63.7500   14.4860 O.3      78   A80      -0.6139
   2454 C1'        31.9780   63.5880   12.9210 C.3      78   A80       0.0394
   2455 N9         31.0050   62.5790   12.4700 N.ar     78   A80      -0.0251
   2456 C8         30.8860   62.0200   11.2110 C.ar     78   A80       0.2006
   2457 N7         29.9960   61.0550   11.1340 N.ar     78   A80      -0.6073
   2458 C5         29.5270   60.9430   12.4310 C.ar     78   A80       0.0515
   2459 C6         28.5950   60.0800   13.0350 C.ar     78   A80       0.7009
   2460 N6         27.8950   59.1710   12.3630 N.pl3    78   A80      -0.9019
   2461 N1         28.3850   60.2100   14.3620 N.ar     78   A80      -0.7615
   2462 C2         29.0830   61.1210   15.0560 C.ar     78   A80       0.5875
   2463 N3         30.0030   61.9720   14.6130 N.ar     78   A80      -0.6997
   2464 C4         30.1740   61.8410   13.2760 C.ar     78   A80       0.3053
   2465 H5'        33.7863   65.2278    9.6685 H        78   A80       0.0679
   2466 H5''       35.0724   64.0140    9.8357 H        78   A80       0.0679
   2467 H4'        34.3541   64.9697   12.0047 H        78   A80       0.1174
   2468 H3'        33.7815   62.0256   11.5788 H        78   A80       0.0615
   2469 H2'        33.0536   61.9515   13.8482 H        78   A80       0.0972
   2470 H1'        31.5258   64.2172   13.6876 H        78   A80       0.2007
   2471 H8         31.4725   62.3472   10.3652 H        78   A80       0.1553
   2472 H2         28.8696   61.1695   16.1136 H        78   A80       0.0473
   2473 H61        27.1404   58.9101   12.9816 H        78   A80       0.4115
   2474 H62        28.0782   58.8178   11.4347 H        78   A80       0.4115
   2475 HO2'       34.6531   63.3238   14.8044 H        78   A80       0.4186
   2476 P          36.1630   61.3450   12.6220 P.3      79   A81       1.1662
   2477 OP1        37.6310   61.5630   12.5280 O.co2    79   A81      -0.7760
   2478 OP2        35.5090   60.3790   11.7010 O.co2    79   A81      -0.7760
   2479 O5'        35.7930   60.9330   14.1280 O.3      79   A81      -0.4989
   2480 C5'        34.9330   59.8320   14.3910 C.3      79   A81       0.0558
   2481 C4'        34.3770   59.9320   15.7920 C.3      79   A81       0.1065
   2482 O4'        32.9870   60.3560   15.7400 O.3      79   A81      -0.3548
   2483 C3'        34.3760   58.6300   16.5510 C.3      79   A81       0.2022
   2484 O3'        35.5770   58.4890   17.2840 O.3      79   A81      -0.5246
   2485 C2'        33.1550   58.7670   17.4590 C.3      79   A81       0.0670
   2486 O2'        33.4170   59.4970   18.6510 O.3      79   A81      -0.6139
   2487 C1'        32.1900   59.5190   16.5590 C.3      79   A81       0.0394
   2488 N9         31.3760   58.6370   15.7000 N.ar     79   A81      -0.0251
   2489 C8         31.5140   58.4350   14.3460 C.ar     79   A81       0.2006
   2490 N7         30.6560   57.5870   13.8450 N.ar     79   A81      -0.6073
   2491 C5         29.9090   57.1860   14.9370 C.ar     79   A81       0.0515
   2492 C6         28.8160   56.2900   15.0680 C.ar     79   A81       0.7009
   2493 N6         28.3020   55.6100   14.0390 N.pl3    79   A81      -0.9019
   2494 N1         28.3030   56.0940   16.3120 N.ar     79   A81      -0.7615
   2495 C2         28.8460   56.7620   17.3430 C.ar     79   A81       0.5875
   2496 N3         29.8520   57.6490   17.3350 N.ar     79   A81      -0.6997
   2497 C4         30.3470   57.8110   16.0940 C.ar     79   A81       0.3053
   2498 H5'        34.1107   59.8378   13.6755 H        79   A81       0.0679
   2499 H5''       35.4938   58.9028   14.2899 H        79   A81       0.0679
   2500 H4'        34.9530   60.6692   16.3514 H        79   A81       0.1174
   2501 H3'        34.2481   57.7914   15.8665 H        79   A81       0.0615
   2502 H2'        32.7541   57.7828   17.7012 H        79   A81       0.0972
   2503 H1'        31.5311   60.1348   17.1711 H        79   A81       0.2007
   2504 H8         32.2648   58.9332   13.7505 H        79   A81       0.1553
   2505 H2         28.4133   56.5568   18.3110 H        79   A81       0.0473
   2506 H61        27.6961   55.0322   14.6040 H        79   A81       0.4115
   2507 H62        28.4632   55.6573   13.0431 H        79   A81       0.4115
   2508 HO2'       34.0280   59.0023   19.2020 H        79   A81       0.4186
   2509 P          36.2680   57.0560   17.3830 P.3      80   C82       1.1662
   2510 OP1        37.4700   57.1940   18.2190 O.co2    80   C82      -0.7760
   2511 OP2        36.3760   56.5090   16.0140 O.co2    80   C82      -0.7760
   2512 O5'        35.1950   56.1880   18.1790 O.3      80   C82      -0.4989
   2513 C5'        34.9430   56.4680   19.5600 C.3      80   C82       0.0558
   2514 C4'        33.6490   55.8250   20.0320 C.3      80   C82       0.1065
   2515 O4'        32.5640   56.1410   19.1220 O.3      80   C82      -0.3548
   2516 C3'        33.6620   54.3140   20.0780 C.3      80   C82       0.2022
   2517 O3'        34.3170   53.8730   21.2710 O.3      80   C82      -0.5246
   2518 C2'        32.1550   54.0120   20.0750 C.3      80   C82       0.0670
   2519 O2'        31.5400   54.2140   21.3420 O.3      80   C82      -0.6139
   2520 C1'        31.6430   55.0600   19.0990 C.3      80   C82       0.0066
   2521 N1         31.4740   54.5720   17.6930 N.am     80   C82      -0.0484
   2522 C2         30.3450   53.8070   17.3490 C.2      80   C82       0.7538
   2523 O2         29.5200   53.5290   18.2130 O.2      80   C82      -0.6252
   2524 N3         30.1730   53.4400   16.0520 N.2      80   C82      -0.7584
   2525 C4         31.0840   53.7830   15.1290 C.2      80   C82       0.8185
   2526 N4         30.8600   53.4250   13.8640 N.pl3    80   C82      -0.9530
   2527 C5         32.2430   54.5380   15.4610 C.2      80   C82      -0.5215
   2528 C6         32.4030   54.8990   16.7380 C.2      80   C82       0.0053
   2529 H5'        34.8719   57.5472   19.6951 H        80   C82       0.0679
   2530 H5''       35.7704   56.0868   20.1585 H        80   C82       0.0679
   2531 H4'        33.4037   56.2078   21.0227 H        80   C82       0.1174
   2532 H3'        34.1446   53.9008   19.1923 H        80   C82       0.0615
   2533 H2'        31.9602   53.0059   19.7036 H        80   C82       0.0972
   2534 H1'        30.6788   55.4214   19.4563 H        80   C82       0.2029
   2535 H5         32.9679   54.8099   14.7080 H        80   C82       0.1928
   2536 H6         33.2810   55.4592   17.0236 H        80   C82       0.1958
   2537 H41        30.0304   52.9000   13.6271 H        80   C82       0.4234
   2538 H42        31.5200   53.6789   13.1429 H        80   C82       0.4234
   2539 HO2'       30.5889   54.2808   21.2296 H        80   C82       0.4186
   2540 P          35.0270   52.4260   21.3540 P.3      81   C83       1.1662
   2541 OP1        35.6750   52.3340   22.7020 O.co2    81   C83      -0.7760
   2542 OP2        35.8230   52.2220   20.1260 O.co2    81   C83      -0.7760
   2543 O5'        33.7950   51.4080   21.3090 O.3      81   C83      -0.4989
   2544 C5'        32.9590   51.2680   22.4330 C.3      81   C83       0.0558
   2545 C4'        31.8910   50.2490   22.1670 C.3      81   C83       0.1065
   2546 O4'        31.1250   50.6700   21.0230 O.3      81   C83      -0.3548
   2547 C3'        32.3890   48.8710   21.7790 C.3      81   C83       0.2022
   2548 O3'        32.7050   48.1350   22.9340 O.3      81   C83      -0.5246
   2549 C2'        31.1620   48.3070   21.0640 C.3      81   C83       0.0670
   2550 O2'        30.1360   47.8980   21.9660 O.3      81   C83      -0.6139
   2551 C1'        30.6740   49.5230   20.3130 C.3      81   C83       0.0066
   2552 N1         31.0770   49.6070   18.8790 N.am     81   C83      -0.0484
   2553 C2         30.2680   48.9840   17.8970 C.2      81   C83       0.7538
   2554 O2         29.3520   48.2330   18.2600 O.2      81   C83      -0.6252
   2555 N3         30.5200   49.2290   16.5740 N.2      81   C83      -0.7584
   2556 C4         31.5530   50.0140   16.2370 C.2      81   C83       0.8185
   2557 N4         31.7860   50.2260   14.9460 N.pl3    81   C83      -0.9530
   2558 C5         32.3770   50.6450   17.2200 C.2      81   C83      -0.5215
   2559 C6         32.0860   50.4440   18.5070 C.2      81   C83       0.0053
   2560 H5'        33.5561   50.9477   23.2868 H        81   C83       0.0679
   2561 H5''       32.4937   52.2277   22.6581 H        81   C83       0.0679
   2562 H4'        31.2371   50.1700   23.0355 H        81   C83       0.1174
   2563 H3'        33.2437   48.9352   21.1056 H        81   C83       0.0615
   2564 H2'        31.4351   47.5020   20.3817 H        81   C83       0.0972
   2565 H1'        29.5846   49.5189   20.3502 H        81   C83       0.2029
   2566 H5         33.2111   51.2666   16.9296 H        81   C83       0.1928
   2567 H6         32.6601   50.9535   19.2667 H        81   C83       0.1958
   2568 H41        31.1989   49.7910   14.2488 H        81   C83       0.4234
   2569 H42        32.5502   50.8222   14.6620 H        81   C83       0.4234
   2570 HO2'       29.5705   47.2519   21.5365 H        81   C83       0.4186
   2571 P          33.9260   47.0910   22.9550 P.3      82   G84       1.1662
   2572 OP1        34.3040   46.9020   24.3760 O.co2    82   G84      -0.7760
   2573 OP2        34.9620   47.5190   21.9740 O.co2    82   G84      -0.7760
   2574 O5'        33.2740   45.7460   22.3810 O.3      82   G84      -0.4989
   2575 C5'        32.0450   45.2430   22.8790 C.3      82   G84       0.0558
   2576 C4'        31.3860   44.3310   21.8570 C.3      82   G84       0.1065
   2577 O4'        30.9960   45.1010   20.7110 O.3      82   G84      -0.3548
   2578 C3'        32.2770   43.2230   21.3270 C.3      82   G84       0.2022
   2579 O3'        32.0570   42.0990   22.0980 O.3      82   G84      -0.5246
   2580 C2'        31.7800   43.0080   19.8940 C.3      82   G84       0.0670
   2581 O2'        30.8000   41.9710   19.7910 O.3      82   G84      -0.6139
   2582 C1'        31.1650   44.3490   19.5260 C.3      82   G84       0.0191
   2583 N9         31.9320   45.1390   18.5570 N.ar     82   G84       0.0492
   2584 C8         32.9470   46.0280   18.8230 C.ar     82   G84       0.1374
   2585 N7         33.3540   46.6890   17.7690 N.ar     82   G84      -0.5709
   2586 C5         32.5520   46.2240   16.7460 C.ar     82   G84       0.1744
   2587 C6         32.5070   46.6000   15.3820 C.2      82   G84       0.4770
   2588 O6         33.2080   47.4320   14.7940 O.2      82   G84      -0.5597
   2589 N1         31.5310   45.8930   14.6760 N.am     82   G84      -0.4787
   2590 C2         30.6960   44.9440   15.2260 C.2      82   G84       0.7657
   2591 N2         29.8240   44.3690   14.3920 N.pl3    82   G84      -0.9672
   2592 N3         30.7050   44.6020   16.5150 N.2      82   G84      -0.6323
   2593 C4         31.6590   45.2800   17.2130 C.ar     82   G84       0.1222
   2594 H5'        32.2328   44.6796   23.7930 H        82   G84       0.0679
   2595 H5''       31.3783   46.0764   23.1005 H        82   G84       0.0679
   2596 H4'        30.4964   43.8859   22.3027 H        82   G84       0.1174
   2597 H3'        33.3268   43.5160   21.3431 H        82   G84       0.0615
   2598 H2'        32.6219   42.7914   19.2364 H        82   G84       0.0972
   2599 H1'        30.1783   44.1620   19.1022 H        82   G84       0.2006
   2600 H8         33.3682   46.1675   19.8077 H        82   G84       0.1640
   2601 H1         31.4296   46.0915   13.6909 H        82   G84       0.3424
   2602 H21        29.8093   44.6317   13.4169 H        82   G84       0.4364
   2603 H22        29.1798   43.6718   14.7369 H        82   G84       0.4364
   2604 HO2'       31.1981   41.1294   20.0252 H        82   G84       0.4186
   2605 P          33.1610   40.9730   22.2370 P.3      83   A85       1.1662
   2606 OP1        34.3330   41.5550   22.9390 O.co2    83   A85      -0.7760
   2607 OP2        33.3370   40.3120   20.9180 O.co2    83   A85      -0.7760
   2608 O5'        32.4230   39.9070   23.1990 O.3      83   A85      -0.4989
   2609 C5'        31.9370   40.2820   24.5050 C.3      83   A85       0.0558
   2610 C4'        31.4650   39.0600   25.2830 C.3      83   A85       0.1065
   2611 O4'        30.3390   38.4430   24.5910 O.3      83   A85      -0.3548
   2612 C3'        32.4840   37.9380   25.4040 C.3      83   A85       0.2022
   2613 O3'        33.3660   38.1650   26.4700 O.3      83   A85      -0.5246
   2614 C2'        31.5860   36.7130   25.6110 C.3      83   A85       0.0670
   2615 O2'        31.0650   36.5920   26.9330 O.3      83   A85      -0.6139
   2616 C1'        30.4600   37.0170   24.6260 C.3      83   A85       0.0394
   2617 N9         30.7070   36.5010   23.2630 N.ar     83   A85      -0.0251
   2618 C8         31.1640   37.2070   22.1830 C.ar     83   A85       0.2006
   2619 N7         31.3150   36.4870   21.0970 N.ar     83   A85      -0.6073
   2620 C5         30.9630   35.2090   21.4880 C.ar     83   A85       0.0515
   2621 C6         30.9160   33.9680   20.7880 C.ar     83   A85       0.7009
   2622 N6         31.2600   33.8350   19.5050 N.pl3    83   A85      -0.9019
   2623 N1         30.5500   32.8650   21.4780 N.ar     83   A85      -0.7615
   2624 C2         30.2550   32.9930   22.7850 C.ar     83   A85       0.5875
   2625 N3         30.2360   34.1060   23.5440 N.ar     83   A85      -0.6997
   2626 C4         30.6090   35.1900   22.8290 C.ar     83   A85       0.3053
   2627 H5'        32.7405   40.7682   25.0582 H        83   A85       0.0679
   2628 H5''       31.1062   40.9786   24.3924 H        83   A85       0.0679
   2629 H4'        31.1494   39.3682   26.2798 H        83   A85       0.1174
   2630 H3'        33.0419   37.8386   24.4729 H        83   A85       0.0615
   2631 H2'        32.1103   35.8020   25.3223 H        83   A85       0.0972
   2632 H1'        29.5312   36.5905   25.0049 H        83   A85       0.2007
   2633 H8         31.3812   38.2642   22.2217 H        83   A85       0.1553
   2634 H2         29.9980   32.0769   23.2959 H        83   A85       0.0473
   2635 H61        30.9946   32.8805   19.3086 H        83   A85       0.4115
   2636 H62        31.6791   34.5157   18.8877 H        83   A85       0.4115
   2637 HO2'       31.7810   36.4011   27.5434 H        83   A85       0.4186
   2638 P          34.8960   37.7150   26.3450 P.3      84   C86       1.1662
   2639 OP1        35.5820   38.0750   27.6040 O.co2    84   C86      -0.7760
   2640 OP2        35.4250   38.2160   25.0500 O.co2    84   C86      -0.7760
   2641 O5'        34.7920   36.1240   26.2740 O.3      84   C86      -0.4989
   2642 C5'        34.4750   35.3930   27.4630 C.3      84   C86       0.0558
   2643 C4'        34.1130   33.9670   27.1470 C.3      84   C86       0.1065
   2644 O4'        33.1780   33.9370   26.0540 O.3      84   C86      -0.3548
   2645 C3'        35.2580   33.1250   26.6500 C.3      84   C86       0.2022
   2646 O3'        36.0380   32.6840   27.7200 O.3      84   C86      -0.5246
   2647 C2'        34.5250   31.9930   25.9600 C.3      84   C86       0.0670
   2648 O2'        33.9650   31.0550   26.8670 O.3      84   C86      -0.6139
   2649 C1'        33.4160   32.7700   25.2690 C.3      84   C86       0.0066
   2650 N1         33.7370   33.1610   23.8260 N.am     84   C86      -0.0484
   2651 C2         33.6660   32.1800   22.8150 C.2      84   C86       0.7538
   2652 O2         33.3660   31.0190   23.1230 O.2      84   C86      -0.6252
   2653 N3         33.9010   32.5450   21.5200 N.2      84   C86      -0.7584
   2654 C4         34.1830   33.8180   21.2250 C.2      84   C86       0.8185
   2655 N4         34.4210   34.1130   19.9540 N.pl3    84   C86      -0.9530
   2656 C5         34.2610   34.8360   22.2300 C.2      84   C86      -0.5215
   2657 C6         34.0330   34.4740   23.5010 C.2      84   C86       0.0053
   2658 H5'        33.6312   35.8718   27.9598 H        84   C86       0.0679
   2659 H5''       35.3367   35.4041   28.1304 H        84   C86       0.0679
   2660 H4'        33.6669   33.4986   28.0244 H        84   C86       0.1174
   2661 H3'        35.8642   33.6826   25.9360 H        84   C86       0.0615
   2662 H2'        35.1674   31.4975   25.2321 H        84   C86       0.0972
   2663 H1'        32.5123   32.1605   25.2705 H        84   C86       0.2029
   2664 H5         34.4951   35.8586   21.9732 H        84   C86       0.1928
   2665 H6         34.0810   35.2177   24.2827 H        84   C86       0.1958
   2666 H41        34.3750   33.3897   19.2505 H        84   C86       0.4234
   2667 H42        34.6482   35.0609   19.6896 H        84   C86       0.4234
   2668 HO2'       34.6698   30.5678   27.2999 H        84   C86       0.4186
   2669 P          37.6350   32.7900   27.6410 P.3      85   A87       1.1662
   2670 OP1        38.1460   32.5460   29.0110 O.co2    85   A87      -0.7760
   2671 OP2        37.9920   34.0470   26.9170 O.co2    85   A87      -0.7760
   2672 O5'        38.0160   31.5410   26.7060 O.3      85   A87      -0.4989
   2673 C5'        37.7770   30.2200   27.1860 C.3      85   A87       0.0558
   2674 C4'        37.8030   29.1980   26.0700 C.3      85   A87       0.1065
   2675 O4'        36.7930   29.5170   25.0910 O.3      85   A87      -0.3548
   2676 C3'        39.0600   29.1640   25.2390 C.3      85   A87       0.2022
   2677 O3'        40.0880   28.5470   25.8840 O.3      85   A87      -0.5246
   2678 C2'        38.5900   28.3910   24.0270 C.3      85   A87       0.0670
   2679 O2'        38.4440   27.0070   24.2570 O.3      85   A87      -0.6139
   2680 C1'        37.2300   29.0380   23.8150 C.3      85   A87       0.0394
   2681 N9         37.2820   30.1480   22.8660 N.ar     85   A87      -0.0251
   2682 C8         37.1570   31.4850   23.1350 C.ar     85   A87       0.2006
   2683 N7         37.2370   32.2490   22.0660 N.ar     85   A87      -0.6073
   2684 C5         37.4710   31.3560   21.0400 C.ar     85   A87       0.0515
   2685 C6         37.6200   31.5230   19.6550 C.ar     85   A87       0.7009
   2686 N6         37.5520   32.7050   19.0440 N.pl3    85   A87      -0.9019
   2687 N1         37.8430   30.4210   18.9150 N.ar     85   A87      -0.7615
   2688 C2         37.9110   29.2320   19.5190 C.ar     85   A87       0.5875
   2689 N3         37.7460   28.9440   20.8030 N.ar     85   A87      -0.6997
   2690 C4         37.5200   30.0600   21.5170 C.ar     85   A87       0.3053
   2691 H5'        38.5472   29.9655   27.9141 H        85   A87       0.0679
   2692 H5''       36.8026   30.1896   27.6736 H        85   A87       0.0679
   2693 H4'        37.6114   28.2065   26.4803 H        85   A87       0.1174
   2694 H3'        39.3487   30.1751   24.9518 H        85   A87       0.0615
   2695 H2'        39.2430   28.5747   23.1738 H        85   A87       0.0972
   2696 H1'        36.5273   28.2876   23.4526 H        85   A87       0.2007
   2697 H8         37.0069   31.8758   24.1306 H        85   A87       0.1553
   2698 H2         38.1296   28.3925   18.8757 H        85   A87       0.0473
   2699 H61        36.9150   32.6798   18.2606 H        85   A87       0.4115
   2700 H62        38.0718   33.5230   19.3283 H        85   A87       0.4115
   2701 HO2'       39.3086   26.6111   24.3891 H        85   A87       0.4186
   2702 P          41.5570   29.1530   25.7180 P.3      86   G88       1.1662
   2703 OP1        42.4440   28.4460   26.6790 O.co2    86   G88      -0.7760
   2704 OP2        41.4520   30.6310   25.7570 O.co2    86   G88      -0.7760
   2705 O5'        41.9570   28.7440   24.2200 O.3      86   G88      -0.4989
   2706 C5'        42.1770   27.3730   23.8930 C.3      86   G88       0.0558
   2707 C4'        42.5450   27.2040   22.4350 C.3      86   G88       0.1065
   2708 O4'        41.5060   27.7550   21.6210 O.3      86   G88      -0.3548
   2709 C3'        43.7870   27.9470   22.0040 C.3      86   G88       0.2022
   2710 O3'        44.9400   27.2080   22.3070 O.3      86   G88      -0.5246
   2711 C2'        43.5750   28.1050   20.5050 C.3      86   G88       0.0670
   2712 O2'        43.9940   26.9770   19.7560 O.3      86   G88      -0.6139
   2713 C1'        42.0630   28.2760   20.4250 C.3      86   G88       0.0191
   2714 N9         41.6460   29.6600   20.2990 N.ar     86   G88       0.0492
   2715 C8         41.3420   30.5280   21.3200 C.ar     86   G88       0.1374
   2716 N7         40.9940   31.7140   20.9110 N.ar     86   G88      -0.5709
   2717 C5         41.0370   31.6150   19.5290 C.ar     86   G88       0.1744
   2718 C6         40.7350   32.5800   18.5410 C.2      86   G88       0.4770
   2719 O6         40.3510   33.7340   18.7110 O.2      86   G88      -0.5597
   2720 N1         40.9040   32.0750   17.2430 N.am     86   G88      -0.4787
   2721 C2         41.3390   30.7930   16.9500 C.2      86   G88       0.7657
   2722 N2         41.4340   30.4740   15.6540 N.pl3    86   G88      -0.9672
   2723 N3         41.6490   29.8850   17.8750 N.2      86   G88      -0.6323
   2724 C4         41.4640   30.3610   19.1380 C.ar     86   G88       0.1222
   2725 H5'        42.9885   26.9874   24.5102 H        86   G88       0.0679
   2726 H5''       41.2695   26.8060   24.1006 H        86   G88       0.0679
   2727 H4'        42.6594   26.1437   22.2097 H        86   G88       0.1174
   2728 H3'        43.8280   28.9245   22.4846 H        86   G88       0.0615
   2729 H2'        44.0760   29.0039   20.1457 H        86   G88       0.0972
   2730 H1'        41.6827   27.7085   19.5757 H        86   G88       0.2006
   2731 H8         41.3875   30.2524   22.3632 H        86   G88       0.1640
   2732 H1         40.6940   32.6886   16.4688 H        86   G88       0.3424
   2733 H21        41.1972   31.1558   14.9474 H        86   G88       0.4364
   2734 H22        41.7425   29.5514   15.3823 H        86   G88       0.4364
   2735 HO2'       44.9477   26.8867   19.8190 H        86   G88       0.4186
   2736 P          46.2010   27.9730   22.8940 P.3      87   U89       1.1662
   2737 OP1        47.2440   26.9600   23.1590 O.co2    87   U89      -0.7760
   2738 OP2        45.7340   28.8550   23.9900 O.co2    87   U89      -0.7760
   2739 O5'        46.6710   28.9200   21.6710 O.3      87   U89      -0.4989
   2740 C5'        47.5330   28.4120   20.6310 C.3      87   U89       0.0558
   2741 C4'        47.4810   29.2850   19.3840 C.3      87   U89       0.1065
   2742 O4'        46.1260   29.7160   19.1510 O.3      87   U89      -0.3548
   2743 C3'        48.2810   30.5720   19.4600 C.3      87   U89       0.2022
   2744 O3'        49.6080   30.3370   19.0930 O.3      87   U89      -0.5246
   2745 C2'        47.5940   31.4490   18.4260 C.3      87   U89       0.0670
   2746 O2'        48.1340   31.2780   17.1280 O.3      87   U89      -0.6139
   2747 C1'        46.1360   30.9720   18.4880 C.3      87   U89       0.0674
   2748 N1         45.1940   31.9520   19.2020 N.am     87   U89       0.0418
   2749 C2         44.4760   32.8560   18.4450 C.2      87   U89       0.4687
   2750 O2         44.5260   32.8820   17.2290 O.2      87   U89      -0.5477
   2751 N3         43.7020   33.7600   19.1790 N.am     87   U89      -0.3549
   2752 C4         43.5640   33.8250   20.5670 C.2      87   U89       0.5952
   2753 O4         42.7880   34.6590   21.0890 O.2      87   U89      -0.5761
   2754 C5         44.3430   32.8390   21.2820 C.2      87   U89      -0.3635
   2755 C6         45.1280   31.9790   20.5950 C.2      87   U89      -0.1126
   2756 H5'        48.5576   28.3861   21.0021 H        87   U89       0.0679
   2757 H5''       47.2215   27.4002   20.3717 H        87   U89       0.0679
   2758 H4'        47.8222   28.7035   18.5275 H        87   U89       0.1174
   2759 H3'        48.2203   31.0148   20.4542 H        87   U89       0.0615
   2760 H2'        47.6576   32.4960   18.7223 H        87   U89       0.0972
   2761 H1'        45.7763   30.8275   17.4692 H        87   U89       0.1824
   2762 H3         43.1842   34.4432   18.6449 H        87   U89       0.3154
   2763 H5         44.2980   32.7897   22.3599 H        87   U89       0.1811
   2764 H6         45.7333   31.2790   21.1518 H        87   U89       0.2188
   2765 HO2'       48.1081   32.1144   16.6574 H        87   U89       0.4186
   2766 P          50.7930   30.7190   20.0890 P.3      88   A90       1.1662
   2767 OP1        52.0680   30.2400   19.4910 O.co2    88   A90      -0.7760
   2768 OP2        50.3980   30.2800   21.4530 O.co2    88   A90      -0.7760
   2769 O5'        50.7860   32.3060   20.0820 O.3      88   A90      -0.4989
   2770 C5'        51.2780   33.0100   18.9890 C.3      88   A90       0.0558
   2771 C4'        51.0340   34.4780   19.2070 C.3      88   A90       0.1065
   2772 O4'        52.0710   35.2550   18.5870 O.3      88   A90      -0.3548
   2773 C3'        49.7030   35.0120   18.6660 C.3      88   A90       0.2022
   2774 O3'        49.0750   35.7330   19.6840 O.3      88   A90      -0.5246
   2775 C2'        50.1300   35.9580   17.5380 C.3      88   A90       0.0670
   2776 O2'        49.2660   37.0910   17.4190 O.3      88   A90      -0.6139
   2777 C1'        51.4860   36.3960   18.0630 C.3      88   A90       0.0394
   2778 N9         52.3740   36.9720   17.0870 N.ar     88   A90      -0.0251
   2779 C8         52.4950   36.6430   15.7660 C.ar     88   A90       0.2006
   2780 N7         53.3550   37.3800   15.1150 N.ar     88   A90      -0.6073
   2781 C5         53.8730   38.2180   16.0880 C.ar     88   A90       0.0515
   2782 C6         54.8350   39.2550   16.0490 C.ar     88   A90       0.7009
   2783 N6         55.4830   39.6160   14.9380 N.pl3    88   A90      -0.9019
   2784 N1         55.0850   39.9210   17.2000 N.ar     88   A90      -0.7615
   2785 C2         54.4120   39.5800   18.3160 C.ar     88   A90       0.5875
   2786 N3         53.5210   38.6080   18.4880 N.ar     88   A90      -0.6997
   2787 C4         53.2810   37.9680   17.3170 C.ar     88   A90       0.3053
   2788 H5'        50.7662   32.6844   18.0834 H        88   A90       0.0679
   2789 H5''       52.3481   32.8284   18.8892 H        88   A90       0.0679
   2790 H4'        51.0638   34.6697   20.2796 H        88   A90       0.1174
   2791 H3'        49.0689   34.2066   18.2953 H        88   A90       0.0615
   2792 H2'        50.2234   35.4286   16.5898 H        88   A90       0.0972
   2793 H1'        51.3353   37.1149   18.8683 H        88   A90       0.2007
   2794 H8         51.9313   35.8467   15.3028 H        88   A90       0.1553
   2795 H2         54.6251   40.1774   19.1901 H        88   A90       0.0473
   2796 HO2'       49.6764   37.7489   16.8531 H        88   A90       0.4186
   2797 H61        55.6261   38.9760   14.1699 H        88   A90       0.4115
   2798 H62        55.8408   40.5576   14.8639 H        88   A90       0.4115
   2799 P          47.9030   35.1120   20.5400 P.3      89   G91       1.1662
   2800 OP1        48.5040   34.4280   21.7160 O.co2    89   G91      -0.7760
   2801 OP2        47.0030   34.3790   19.6430 O.co2    89   G91      -0.7760
   2802 O5'        47.1590   36.4320   21.0140 O.3      89   G91      -0.4989
   2803 C5'        46.1450   36.4070   21.9900 C.3      89   G91       0.0558
   2804 C4'        45.7200   37.8250   22.3100 C.3      89   G91       0.1065
   2805 O4'        46.8940   38.6360   22.5890 O.3      89   G91      -0.3548
   2806 C3'        44.9580   38.5560   21.2020 C.3      89   G91       0.2022
   2807 O3'        43.9330   39.2910   21.7940 O.3      89   G91      -0.5246
   2808 C2'        46.0360   39.4770   20.5740 C.3      89   G91       0.0670
   2809 O2'        45.5160   40.6870   20.0390 O.3      89   G91      -0.6139
   2810 C1'        46.8960   39.7860   21.7710 C.3      89   G91       0.0191
   2811 N9         48.2690   40.1600   21.4620 N.ar     89   G91       0.0492
   2812 C8         49.3460   39.3270   21.2280 C.ar     89   G91       0.1374
   2813 N7         50.4930   39.9660   21.1480 N.ar     89   G91      -0.5709
   2814 C5         50.1490   41.2940   21.3690 C.ar     89   G91       0.1744
   2815 C6         50.9590   42.4510   21.4430 C.2      89   G91       0.4770
   2816 O6         52.1770   42.5380   21.2660 O.2      89   G91      -0.5597
   2817 N1         50.2110   43.5990   21.7480 N.am     89   G91      -0.4787
   2818 C2         48.8360   43.6180   21.9110 C.2      89   G91       0.7657
   2819 N2         48.2570   44.8150   22.1000 N.pl3    89   G91      -0.9672
   2820 N3         48.0740   42.5470   21.8290 N.2      89   G91      -0.6323
   2821 C4         48.7920   41.4210   21.5790 C.ar     89   G91       0.1222
   2822 H5'        46.5218   35.9277   22.8936 H        89   G91       0.0679
   2823 H5''       45.2895   35.8476   21.6114 H        89   G91       0.0679
   2824 H4'        45.0949   37.8045   23.2027 H        89   G91       0.1174
   2825 H3'        44.5642   37.8541   20.4669 H        89   G91       0.0615
   2826 H2'        46.6085   38.9383   19.8189 H        89   G91       0.0972
   2827 H1'        46.4335   40.6029   22.3250 H        89   G91       0.2006
   2828 H8         49.2551   38.2561   21.1212 H        89   G91       0.1640
   2829 H1         50.7097   44.4706   21.8559 H        89   G91       0.3424
   2830 H21        48.8243   45.6496   22.1419 H        89   G91       0.4364
   2831 H22        47.2541   44.8806   22.2003 H        89   G91       0.4364
   2832 HO2'       45.3871   40.5897   19.0927 H        89   G91       0.4186
   2833 P          42.4220   38.8290   21.6850 P.3      90   A92       1.1662
   2834 OP1        41.6380   39.7470   22.5290 O.co2    90   A92      -0.7760
   2835 OP2        42.3190   37.3390   21.9250 O.co2    90   A92      -0.7760
   2836 O5'        42.0940   39.1130   20.1620 O.3      90   A92      -0.4989
   2837 C5'        41.9300   40.4180   19.6730 C.3      90   A92       0.0558
   2838 C4'        40.9780   40.4000   18.4950 C.3      90   A92       0.1065
   2839 O4'        41.4810   39.5200   17.4610 O.3      90   A92      -0.3548
   2840 C3'        39.5760   39.9020   18.8070 C.3      90   A92       0.2022
   2841 O3'        38.6440   40.6320   18.0190 O.3      90   A92      -0.5246
   2842 C2'        39.6360   38.4210   18.3900 C.3      90   A92       0.0670
   2843 O2'        38.3740   37.9020   18.0310 O.3      90   A92      -0.6139
   2844 C1'        40.5470   38.4900   17.1790 C.3      90   A92       0.0394
   2845 N9         41.2910   37.2550   16.8960 N.ar     90   A92      -0.0251
   2846 C8         42.0470   36.5310   17.7740 C.ar     90   A92       0.2006
   2847 N7         42.6860   35.5260   17.2220 N.ar     90   A92      -0.6073
   2848 C5         42.3890   35.6380   15.8730 C.ar     90   A92       0.0515
   2849 C6         42.7730   34.8800   14.7360 C.ar     90   A92       0.7009
   2850 N6         43.5590   33.8000   14.7950 N.pl3    90   A92      -0.9019
   2851 N1         42.3240   35.2770   13.5320 N.ar     90   A92      -0.7615
   2852 C2         41.5310   36.3390   13.4680 C.ar     90   A92       0.5875
   2853 N3         41.0910   37.1190   14.4590 N.ar     90   A92      -0.6997
   2854 C4         41.5460   36.7020   15.6510 C.ar     90   A92       0.3053
   2855 H5'        41.5220   41.0522   20.4601 H        90   A92       0.0679
   2856 H5''       42.8955   40.8106   19.3540 H        90   A92       0.0679
   2857 H4'        40.9069   41.4092   18.0892 H        90   A92       0.1174
   2858 H3'        39.3527   40.0009   19.8693 H        90   A92       0.0615
   2859 H2'        40.0890   37.8185   19.1773 H        90   A92       0.0972
   2860 H1'        39.9606   38.7659   16.3026 H        90   A92       0.2007
   2861 H8         42.1129   36.7643   18.8264 H        90   A92       0.1553
   2862 H2         41.1950   36.6101   12.4780 H        90   A92       0.0473
   2863 HO2'       38.0779   38.3144   17.2162 H        90   A92       0.4186
   2864 H61        43.6838   33.8266   15.7969 H        90   A92       0.4115
   2865 H62        43.9076   33.1738   14.0834 H        90   A92       0.4115
   2866 P          38.0590   42.0400   18.5170 P.3      91   G93       1.1662
   2867 OP1        38.7260   43.0980   17.7300 O.co2    91   G93      -0.7760
   2868 OP2        38.0970   42.0860   20.0140 O.co2    91   G93      -0.7760
   2869 O5'        36.5290   41.9210   18.0620 O.3      91   G93      -0.4989
   2870 C5'        35.8290   40.7150   18.3130 C.3      91   G93       0.0558
   2871 C4'        34.5520   40.6460   17.5370 C.3      91   G93       0.1065
   2872 O4'        33.9290   41.9470   17.4900 O.3      91   G93      -0.3548
   2873 C3'        34.7250   40.2230   16.1000 C.3      91   G93       0.2022
   2874 O3'        34.6890   38.7870   16.0310 O.3      91   G93      -0.5246
   2875 C2'        33.5070   40.8860   15.4470 C.3      91   G93       0.0670
   2876 O2'        32.2930   40.1930   15.7350 O.3      91   G93      -0.6139
   2877 C1'        33.4790   42.2190   16.1780 C.3      91   G93       0.0191
   2878 N9         34.3180   43.2970   15.6290 N.ar     91   G93       0.0492
   2879 C8         35.1090   44.1470   16.3750 C.ar     91   G93       0.1374
   2880 N7         35.6700   45.0950   15.6840 N.ar     91   G93      -0.5709
   2881 C5         35.1840   44.9020   14.3950 C.ar     91   G93       0.1744
   2882 C6         35.3530   45.7010   13.2460 C.2      91   G93       0.4770
   2883 O6         36.0850   46.7000   13.1050 O.2      91   G93      -0.5597
   2884 N1         34.7000   45.1710   12.1480 N.am     91   G93      -0.4787
   2885 C2         33.9440   44.0410   12.1570 C.2      91   G93       0.7657
   2886 N2         33.3730   43.7150   10.9940 N.pl3    91   G93      -0.9672
   2887 N3         33.6970   43.3220   13.2550 N.2      91   G93      -0.6323
   2888 C4         34.3300   43.8230   14.3430 C.ar     91   G93       0.1222
   2889 H5'        36.4611   39.8738   18.0286 H        91   G93       0.0679
   2890 H5''       35.6037   40.6481   19.3774 H        91   G93       0.0679
   2891 H4'        33.8758   39.9485   18.0313 H        91   G93       0.1174
   2892 H3'        35.6543   40.6131   15.6848 H        91   G93       0.0615
   2893 H2'        33.6489   41.0190   14.3745 H        91   G93       0.0972
   2894 H1'        32.4479   42.5691   16.2275 H        91   G93       0.2006
   2895 H8         35.2498   44.0346   17.4399 H        91   G93       0.1640
   2896 H1         34.7920   45.6621   11.2703 H        91   G93       0.3424
   2897 H21        33.5402   44.2795   10.1733 H        91   G93       0.4364
   2898 H22        32.7740   42.9039   10.9355 H        91   G93       0.4364
   2899 HO2'       32.2916   39.3469   15.2814 H        91   G93       0.4186
   2900 P          35.9980   37.9450   15.6040 P.3      92   U94       1.1662
   2901 OP1        35.8820   36.5660   16.1420 O.co2    92   U94      -0.7760
   2902 OP2        37.2100   38.7560   15.8870 O.co2    92   U94      -0.7760
   2903 O5'        35.8070   37.8820   14.0340 O.3      92   U94      -0.4989
   2904 C5'        34.5230   37.5900   13.4780 C.3      92   U94       0.0558
   2905 C4'        34.5130   37.9200   12.0010 C.3      92   U94       0.1065
   2906 O4'        34.5600   39.3520   11.8300 O.3      92   U94      -0.3548
   2907 C3'        35.6730   37.3590   11.2020 C.3      92   U94       0.2022
   2908 O3'        35.1950   36.8040    9.9640 O.3      92   U94      -0.5246
   2909 C2'        36.5670   38.5690   11.0120 C.3      92   U94       0.0670
   2910 O2'        37.3560   38.5090    9.8500 O.3      92   U94      -0.6139
   2911 C1'        35.5550   39.6880   10.9290 C.3      92   U94       0.0674
   2912 N1         36.1060   40.9670   11.3480 N.am     92   U94       0.0418
   2913 C2         36.2370   41.9630   10.4220 C.2      92   U94       0.4687
   2914 O2         35.8520   41.8480    9.2830 O.2      92   U94      -0.5477
   2915 N3         36.9050   43.0830   10.8660 N.am     92   U94      -0.3549
   2916 C4         37.4570   43.2800   12.1250 C.2      92   U94       0.5952
   2917 O4         37.9610   44.3410   12.3970 O.2      92   U94      -0.5761
   2918 C5         37.2800   42.1990   13.0510 C.2      92   U94      -0.3635
   2919 C6         36.6430   41.0950   12.6340 C.2      92   U94      -0.1126
   2920 H5'        33.7653   38.1863   13.9864 H        92   U94       0.0679
   2921 H5''       34.3019   36.5314   13.6139 H        92   U94       0.0679
   2922 H4'        33.5832   37.5496   11.5692 H        92   U94       0.1174
   2923 H3'        36.1928   36.5951   11.7802 H        92   U94       0.0615
   2924 H2'        37.2021   38.7047   11.8874 H        92   U94       0.0972
   2925 H1'        35.1479   39.7601    9.9205 H        92   U94       0.1824
   2926 H3         37.0037   43.8411   10.2060 H        92   U94       0.3154
   2927 H5         37.6517   42.2726   14.0623 H        92   U94       0.1811
   2928 H6         36.5399   40.2681   13.3210 H        92   U94       0.2188
   2929 HO2'       37.9888   37.7914    9.9290 H        92   U94       0.4186
   2930 P          35.0110   35.2180    9.8550 P.3      93   C95       1.1662
   2931 OP1        34.4660   34.8820    8.5060 O.co2    93   C95      -0.7760
   2932 OP2        34.2900   34.7540   11.0730 O.co2    93   C95      -0.7760
   2933 O5'        36.5150   34.7100    9.9900 O.3      93   C95      -0.4989
   2934 C5'        37.2800   34.3540    8.8940 C.3      93   C95       0.0558
   2935 C4'        38.4430   33.5240    9.3670 C.3      93   C95       0.1065
   2936 O4'        39.2050   34.2550   10.3590 O.3      93   C95      -0.3548
   2937 C3'        38.0570   32.2600   10.0820 C.3      93   C95       0.2022
   2938 O3'        37.7670   31.2820    9.1370 O.3      93   C95      -0.5246
   2939 C2'        39.3510   31.9550   10.8260 C.3      93   C95       0.0670
   2940 O2'        40.3370   31.4000    9.9780 O.3      93   C95      -0.6139
   2941 C1'        39.7840   33.3420   11.2700 C.3      93   C95       0.0066
   2942 N1         39.3830   33.7080   12.6920 N.am     93   C95      -0.0484
   2943 C2         40.0540   33.1160   13.7970 C.2      93   C95       0.7538
   2944 O2         40.9320   32.2880   13.6000 O.2      93   C95      -0.6252
   2945 N3         39.7380   33.5020   15.0540 N.2      93   C95      -0.7584
   2946 C4         38.7940   34.4250   15.2500 C.2      93   C95       0.8185
   2947 N4         38.4990   34.7530   16.5170 N.pl3    93   C95      -0.9530
   2948 C5         38.0670   35.0180   14.1480 C.2      93   C95      -0.5215
   2949 C6         38.4280   34.6700   12.9050 C.2      93   C95       0.0053
   2950 H5'        36.6749   33.7740    8.1972 H        93   C95       0.0679
   2951 H5''       37.6490   35.2519    8.3983 H        93   C95       0.0679
   2952 H4'        39.0854   33.2817    8.5204 H        93   C95       0.1174
   2953 H3'        37.2244   32.4205   10.7670 H        93   C95       0.0615
   2954 H2'        39.1655   31.3097   11.6847 H        93   C95       0.0972
   2955 H1'        40.8687   33.4099   11.1871 H        93   C95       0.2029
   2956 H5         37.2617   35.7165   14.3212 H        93   C95       0.1928
   2957 H6         37.9609   35.1533   12.0596 H        93   C95       0.1958
   2958 H41        38.9987   34.3198   17.2803 H        93   C95       0.4234
   2959 H42        37.7771   35.4332   16.7075 H        93   C95       0.4234
   2960 HO2'       40.0625   30.5237    9.6980 H        93   C95       0.4186
   2961 P          36.6040   30.2140    9.3630 P.3      94   U96       1.1662
   2962 OP1        36.5370   29.4000    8.1230 O.co2    94   U96      -0.7760
   2963 OP2        35.3840   30.9160    9.8500 O.co2    94   U96      -0.7760
   2964 O5'        37.1800   29.3040   10.5410 O.3      94   U96      -0.4989
   2965 C5'        38.0860   28.2620   10.2420 C.3      94   U96       0.0558
   2966 C4'        38.6420   27.6610   11.5090 C.3      94   U96       0.1065
   2967 O4'        39.2490   28.7100   12.2980 O.3      94   U96      -0.3548
   2968 C3'        37.6020   27.0890   12.4480 C.3      94   U96       0.2022
   2969 O3'        37.1760   25.8070   12.0480 O.3      94   U96      -0.5246
   2970 C2'        38.3480   27.0980   13.7820 C.3      94   U96       0.0670
   2971 O2'        39.3150   26.0620   13.9270 O.3      94   U96      -0.6139
   2972 C1'        39.0500   28.4400   13.6900 C.3      94   U96       0.0674
   2973 N1         38.2790   29.5680   14.3430 N.am     94   U96       0.0418
   2974 C2         38.2150   29.6330   15.7320 C.2      94   U96       0.4687
   2975 O2         38.7230   28.7990   16.4720 O.2      94   U96      -0.5477
   2976 N3         37.5320   30.7210   16.2260 N.am     94   U96      -0.3549
   2977 C4         36.9110   31.7180   15.5010 C.2      94   U96       0.5952
   2978 O4         36.3320   32.6300   16.0870 O.2      94   U96      -0.5761
   2979 C5         37.0130   31.5810   14.0690 C.2      94   U96      -0.3635
   2980 C6         37.6810   30.5390   13.5560 C.2      94   U96      -0.1126
   2981 H5'        37.5673   27.4880    9.6763 H        94   U96       0.0679
   2982 H5''       38.9052   28.6584    9.6421 H        94   U96       0.0679
   2983 H4'        39.3839   26.9002   11.2664 H        94   U96       0.1174
   2984 H3'        36.7455   27.7610   12.5012 H        94   U96       0.0615
   2985 H2'        37.6456   27.0878   14.6154 H        94   U96       0.0972
   2986 H1'        40.0240   28.3581   14.1723 H        94   U96       0.1824
   2987 H3         37.4793   30.7986   17.2316 H        94   U96       0.3154
   2988 H5         36.5558   32.3106   13.4170 H        94   U96       0.1811
   2989 H6         37.7566   30.4521   12.4822 H        94   U96       0.2188
   2990 HO2'       38.8695   25.2136   13.9851 H        94   U96       0.4186
   2991 P          35.6100   25.4520   12.1070 P.3      95   G97       1.1662
   2992 OP1        35.4120   24.2060   11.3220 O.co2    95   G97      -0.7760
   2993 OP2        34.8310   26.6680   11.7650 O.co2    95   G97      -0.7760
   2994 O5'        35.3600   25.1440   13.6620 O.3      95   G97      -0.4989
   2995 C5'        36.1630   24.1950   14.3630 C.3      95   G97       0.0558
   2996 C4'        35.8960   24.2660   15.8540 C.3      95   G97       0.1065
   2997 O4'        36.4810   25.4760   16.3950 O.3      95   G97      -0.3548
   2998 C3'        34.4360   24.3760   16.2440 C.3      95   G97       0.2022
   2999 O3'        33.7900   23.1110   16.2000 O.3      95   G97      -0.5246
   3000 C2'        34.5440   24.9490   17.6570 C.3      95   G97       0.0670
   3001 O2'        34.8940   23.9900   18.6330 O.3      95   G97      -0.6139
   3002 C1'        35.6870   25.9420   17.4850 C.3      95   G97       0.0191
   3003 N9         35.2360   27.3340   17.2470 N.ar     95   G97       0.0492
   3004 C8         35.1100   27.9880   16.0440 C.ar     95   G97       0.1374
   3005 N7         34.7010   29.2290   16.1650 N.ar     95   G97      -0.5709
   3006 C5         34.5630   29.4140   17.5410 C.ar     95   G97       0.1744
   3007 C6         34.1440   30.5650   18.3000 C.2      95   G97       0.4770
   3008 O6         33.7700   31.6800   17.8830 O.2      95   G97      -0.5597
   3009 N1         34.0770   30.2880   19.6700 N.am     95   G97      -0.4787
   3010 C2         34.4190   29.0790   20.2400 C.2      95   G97       0.7657
   3011 N2         34.3550   29.0040   21.5730 N.pl3    95   G97      -0.9672
   3012 N3         34.8060   28.0140   19.5490 N.2      95   G97      -0.6323
   3013 C4         34.8290   28.2390   18.2100 C.ar     95   G97       0.1222
   3014 H5'        35.9276   23.1929   14.0046 H        95   G97       0.0679
   3015 H5''       37.2158   24.4062   14.1755 H        95   G97       0.0679
   3016 H4'        36.3383   23.3985   16.3438 H        95   G97       0.1174
   3017 H3'        33.9244   25.0822   15.5901 H        95   G97       0.0615
   3018 H2'        33.6246   25.4641   17.9352 H        95   G97       0.0972
   3019 H1'        36.2970   25.9263   18.3882 H        95   G97       0.2006
   3020 H8         35.3265   27.5254   15.0924 H        95   G97       0.1640
   3021 H1         33.7563   31.0234   20.2835 H        95   G97       0.3424
   3022 H21        34.0645   29.8081   22.1107 H        95   G97       0.4364
   3023 H22        34.5971   28.1432   22.0426 H        95   G97       0.4364
   3024 HO2'       34.1185   23.7622   19.1510 H        95   G97       0.4186
   3025 P          32.2280   23.0040   15.7910 P.3      96   G98       1.1662
   3026 OP1        31.9630   21.6340   15.2880 O.co2    96   G98      -0.7760
   3027 OP2        31.8730   24.1580   14.9340 O.co2    96   G98      -0.7760
   3028 O5'        31.4900   23.1960   17.1990 O.3      96   G98      -0.4989
   3029 C5'        31.7390   22.2860   18.2740 C.3      96   G98       0.0558
   3030 C4'        31.2460   22.8520   19.5930 C.3      96   G98       0.1065
   3031 O4'        31.9770   24.0620   19.9040 O.3      96   G98      -0.3548
   3032 C3'        29.7800   23.2620   19.6210 C.3      96   G98       0.2022
   3033 O3'        28.9630   22.1340   19.9120 O.3      96   G98      -0.5246
   3034 C2'        29.7600   24.2960   20.7460 C.3      96   G98       0.0670
   3035 O2'        29.6620   23.7150   22.0330 O.3      96   G98      -0.6139
   3036 C1'        31.1230   24.9700   20.5830 C.3      96   G98       0.0191
   3037 N9         31.0730   26.2330   19.8440 N.ar     96   G98       0.0492
   3038 C8         31.1120   26.4050   18.4780 C.ar     96   G98       0.1374
   3039 N7         31.0560   27.6540   18.1060 N.ar     96   G98      -0.5709
   3040 C5         30.9780   28.3570   19.3010 C.ar     96   G98       0.1744
   3041 C6         30.8970   29.7570   19.5360 C.2      96   G98       0.4770
   3042 O6         30.8530   30.6700   18.7020 O.2      96   G98      -0.5597
   3043 N1         30.8330   30.0530   20.9020 N.am     96   G98      -0.4787
   3044 C2         30.8270   29.1070   21.9160 C.2      96   G98       0.7657
   3045 N2         30.7560   29.5740   23.1740 N.pl3    96   G98      -0.9672
   3046 N3         30.9030   27.7940   21.7060 N.2      96   G98      -0.6323
   3047 C4         30.9720   27.4930   20.3800 C.ar     96   G98       0.1222
   3048 H5'        31.2215   21.3479   18.0735 H        96   G98       0.0679
   3049 H5''       32.8103   22.0969   18.3429 H        96   G98       0.0679
   3050 H4'        31.4234   22.1195   20.3804 H        96   G98       0.1174
   3051 H3'        29.4880   23.7161   18.6741 H        96   G98       0.0615
   3052 H2'        28.9565   25.0157   20.5894 H        96   G98       0.0972
   3053 H1'        31.5365   25.1624   21.5730 H        96   G98       0.2006
   3054 H8         31.1823   25.5833   17.7807 H        96   G98       0.1640
   3055 H1         30.7879   31.0261   21.1689 H        96   G98       0.3424
   3056 H21        30.7043   30.5687   23.3413 H        96   G98       0.4364
   3057 H22        30.7544   28.9303   23.9523 H        96   G98       0.4364
   3058 HO2'       28.8049   23.2935   22.1299 H        96   G98       0.4186
   3059 P          27.5390   21.9440   19.1850 P.3      97   A99       1.1662
   3060 OP1        26.5540   22.8100   19.8820 O.co2    97   A99      -0.7760
   3061 OP2        27.2930   20.4830   19.0740 O.co2    97   A99      -0.7760
   3062 O5'        27.7840   22.5350   17.7090 O.3      97   A99      -0.4989
   3063 C5'        26.8910   22.2040   16.6370 C.3      97   A99       0.0558
   3064 C4'        26.7690   23.3500   15.6320 C.3      97   A99       0.1065
   3065 O4'        26.3680   24.5680   16.3030 O.3      97   A99      -0.3548
   3066 C3'        28.0310   23.7100   14.8490 C.3      97   A99       0.2022
   3067 O3'        27.6450   24.1550   13.5420 O.3      97   A99      -0.5246
   3068 C2'        28.6040   24.8720   15.6720 C.3      97   A99       0.0670
   3069 O2'        29.4250   25.7240   14.9070 O.3      97   A99      -0.6139
   3070 C1'        27.3230   25.5910   16.0660 C.3      97   A99       0.0394
   3071 N9         27.4290   26.3910   17.2780 N.ar     97   A99      -0.0251
   3072 C8         27.2930   25.9420   18.5670 C.ar     97   A99       0.2006
   3073 N7         27.3510   26.8850   19.4730 N.ar     97   A99      -0.6073
   3074 C5         27.4890   28.0430   18.7310 C.ar     97   A99       0.0515
   3075 C6         27.5860   29.3990   19.1070 C.ar     97   A99       0.7009
   3076 N6         27.5820   29.7970   20.3900 N.pl3    97   A99      -0.9019
   3077 N1         27.7490   30.3230   18.1140 N.ar     97   A99      -0.7615
   3078 C2         27.7630   29.9070   16.8340 C.ar     97   A99       0.5875
   3079 N3         27.6390   28.6620   16.3540 N.ar     97   A99      -0.6997
   3080 C4         27.5150   27.7630   17.3670 C.ar     97   A99       0.3053
   3081 H5'        27.2688   21.3207   16.1220 H        97   A99       0.0679
   3082 H5''       25.9059   21.9834   17.0482 H        97   A99       0.0679
   3083 H4'        25.9908   23.0882   14.9151 H        97   A99       0.1174
   3084 H3'        28.7259   22.8717   14.7992 H        97   A99       0.0615
   3085 H2'        29.1330   24.5050   16.5515 H        97   A99       0.0972
   3086 H1'        26.9881   26.2198   15.2410 H        97   A99       0.2007
   3087 H8         27.1504   24.9001   18.8132 H        97   A99       0.1553
   3088 H2         27.8917   30.6820   16.0929 H        97   A99       0.0473
   3089 HO2'       30.3152   25.3661   14.8735 H        97   A99       0.4186
   3090 H61        27.4846   29.1163   21.1297 H        97   A99       0.4115
   3091 H62        27.6764   30.7771   20.6149 H        97   A99       0.4115
   3092 P          27.8830   23.2540   12.2370 P.3      98   U100      1.1662
   3093 OP1        28.7690   22.1060   12.5830 O.co2    98   U100     -0.7760
   3094 OP2        28.2600   24.1770   11.1380 O.co2    98   U100     -0.7760
   3095 O5'        26.4160   22.6960   11.9290 O.3      98   U100     -0.4989
   3096 C5'        25.3230   23.6020   11.6530 C.3      98   U100      0.0558
   3097 C4'        24.0420   22.8210   11.4010 C.3      98   U100      0.1065
   3098 O4'        24.3060   21.7440   10.4630 O.3      98   U100     -0.3548
   3099 C3'        23.4300   22.1640   12.6430 C.3      98   U100      0.2022
   3100 O3'        21.9700   22.2580   12.6080 O.3      98   U100     -0.5246
   3101 C2'        23.9220   20.7110   12.5470 C.3      98   U100      0.0670
   3102 O2'        23.0420   19.7890   13.1670 O.3      98   U100     -0.6139
   3103 C1'        23.9440   20.5000   11.0330 C.3      98   U100      0.0674
   3104 N1         24.9190   19.4340   10.5490 N.am     98   U100      0.0418
   3105 C2         24.4240   18.3180    9.8630 C.2      98   U100      0.4687
   3106 O2         23.2320   18.1370    9.6350 O.2      98   U100     -0.5477
   3107 N3         25.3910   17.4110    9.4560 N.am     98   U100     -0.3549
   3108 C4         26.7700   17.5100    9.6500 C.2      98   U100      0.5952
   3109 O4         27.5110   16.6270    9.2180 O.2      98   U100     -0.5761
   3110 C5         27.2070   18.6930   10.3720 C.2      98   U100     -0.3635
   3111 C6         26.2900   19.5930   10.7770 C.2      98   U100     -0.1126
   3112 H5'        25.5619   24.1955   10.7705 H        98   U100      0.0679
   3113 H5''       25.1796   24.2652   12.5061 H        98   U100      0.0679
   3114 H4'        23.3043   23.4928   10.9623 H        98   U100      0.1174
   3115 H3'        23.8165   22.6340   13.5473 H        98   U100      0.0615
   3116 H2'        24.9262   20.6190   12.9608 H        98   U100      0.0972
   3117 H1'        22.9402   20.2377   10.6988 H        98   U100      0.1824
   3118 H3         25.0623   16.5908    8.9667 H        98   U100      0.3154
   3119 H5         28.2549   18.8489   10.5815 H        98   U100      0.1811
   3120 H6         26.6279   20.4753   11.3003 H        98   U100      0.2188
   3121 HO2'       23.0407   19.9356   14.1157 H        98   U100      0.4186
   3122 P          21.1950   23.4520   13.3810 P.3      99   G101      1.1662
   3123 OP1        19.7590   23.0640   13.5130 O.co2    99   G101     -0.7760
   3124 OP2        21.5530   24.7290   12.7090 O.co2    99   G101     -0.7760
   3125 O5'        21.8710   23.4800   14.8450 O.3      99   G101     -0.4989
   3126 C5'        21.7770   22.3500   15.7340 C.3      99   G101      0.0558
   3127 C4'        22.2040   22.7340   17.1400 C.3      99   G101      0.1065
   3128 O4'        23.5210   23.3510   17.1000 O.3      99   G101     -0.3548
   3129 C3'        21.3090   23.7650   17.8030 C.3      99   G101      0.2022
   3130 O3'        20.1910   23.1310   18.4380 O.3      99   G101     -0.5246
   3131 C2'        22.2590   24.4330   18.7920 C.3      99   G101      0.0670
   3132 O2'        22.4150   23.7170   20.0010 O.3      99   G101     -0.6139
   3133 C1'        23.5680   24.4460   18.0010 C.3      99   G101      0.0191
   3134 N9         23.7850   25.6900   17.2420 N.ar     99   G101      0.0492
   3135 C8         23.7880   25.8480   15.8700 C.ar     99   G101      0.1374
   3136 N7         24.0370   27.0740   15.4840 N.ar     99   G101     -0.5709
   3137 C5         24.1300   27.7910   16.6690 C.ar     99   G101      0.1744
   3138 C6         24.3440   29.1760   16.8860 C.2      99   G101      0.4770
   3139 O6         24.4910   30.0650   16.0400 O.2      99   G101     -0.5597
   3140 N1         24.3650   29.4990   18.2510 N.am     99   G101     -0.4787
   3141 C2         24.1980   28.5890   19.2760 C.2      99   G101      0.7657
   3142 N2         24.2600   29.0690   20.5250 N.pl3    99   G101     -0.9672
   3143 N3         24.0160   27.2900   19.0870 N.2      99   G101     -0.6323
   3144 C4         23.9880   26.9580   17.7620 C.ar     99   G101      0.1222
   3145 H5'        20.7455   21.9984   15.7572 H        99   G101      0.0679
   3146 H5''       22.4212   21.5504   15.3684 H        99   G101      0.0679
   3147 H4'        22.2442   21.8392   17.7612 H        99   G101      0.1174
   3148 H3'        20.9617   24.4902   17.0670 H        99   G101      0.0615
   3149 H2'        21.9329   25.4526   18.9975 H        99   G101      0.0972
   3150 H1'        24.3999   24.3020   18.6904 H        99   G101      0.2006
   3151 H8         23.6026   25.0373   15.1810 H        99   G101      0.1640
   3152 H1         24.5128   30.4661   18.5019 H        99   G101      0.3424
   3153 H21        24.4104   30.0556   20.6800 H        99   G101      0.4364
   3154 H22        24.1564   28.4443   21.3118 H        99   G101      0.4364
   3155 HO2'       21.5853   23.7189   20.4839 H        99   G101      0.4186
   3156 P          18.7070   23.7330   18.2550 P.3     100   A102      1.1662
   3157 OP1        17.7470   22.7700   18.8550 O.co2   100   A102     -0.7760
   3158 OP2        18.5290   24.1610   16.8380 O.co2   100   A102     -0.7760
   3159 O5'        18.7510   25.0550   19.1540 O.3     100   A102     -0.4989
   3160 C5'        18.8950   24.9620   20.5650 C.3     100   A102      0.0558
   3161 C4'        19.3160   26.2910   21.1410 C.3     100   A102      0.1065
   3162 O4'        20.5340   26.7110   20.4860 O.3     100   A102     -0.3548
   3163 C3'        18.3470   27.4330   20.8930 C.3     100   A102      0.2022
   3164 O3'        17.3250   27.4550   21.8680 O.3     100   A102     -0.5246
   3165 C2'        19.2660   28.6490   20.9760 C.3     100   A102      0.0670
   3166 O2'        19.5840   29.0260   22.3080 O.3     100   A102     -0.6139
   3167 C1'        20.5110   28.1170   20.2810 C.3     100   A102      0.0394
   3168 N9         20.5720   28.4010   18.8430 N.ar    100   A102     -0.0251
   3169 C8         20.4680   27.5000   17.8110 C.ar    100   A102      0.2006
   3170 N7         20.6640   28.0210   16.6190 N.ar    100   A102     -0.6073
   3171 C5         20.9210   29.3560   16.8810 C.ar    100   A102      0.0515
   3172 C6         21.2510   30.4510   16.0420 C.ar    100   A102      0.7009
   3173 N6         21.3590   30.3490   14.7060 N.pl3   100   A102     -0.9019
   3174 N1         21.4290   31.6720   16.6330 N.ar    100   A102     -0.7615
   3175 C2         21.3450   31.7680   17.9760 C.ar    100   A102      0.5875
   3176 N3         21.0900   30.8040   18.8690 N.ar    100   A102     -0.6997
   3177 C4         20.8790   29.6100   18.2520 C.ar    100   A102      0.3053
   3178 H5'        19.6517   24.2134   20.7998 H       100   A102      0.0679
   3179 H5''       17.9437   24.6634   21.0055 H       100   A102      0.0679
   3180 H4'        19.4930   26.1867   22.2115 H       100   A102      0.1174
   3181 H3'        17.9157   27.3527   19.8952 H       100   A102      0.0615
   3182 H2'        18.8452   29.4905   20.4256 H       100   A102      0.0972
   3183 H1'        21.3886   28.5523   20.7588 H       100   A102      0.2007
   3184 H8         20.2447   26.4546   17.9650 H       100   A102      0.1553
   3185 H2         21.5049   32.7545   18.3854 H       100   A102      0.0473
   3186 H61        21.2162   29.4569   14.2544 H       100   A102      0.4115
   3187 H62        21.5829   31.1645   14.1538 H       100   A102      0.4115
   3188 HO2'       18.7964   29.3609   22.7429 H       100   A102      0.4186
   3189 P          15.8160   27.8000   21.4360 P.3     101   G103      1.1662
   3190 OP1        14.9530   27.6870   22.6410 O.co2   101   G103     -0.7760
   3191 OP2        15.4820   27.0140   20.2250 O.co2   101   G103     -0.7760
   3192 O5'        15.9230   29.3290   20.9910 O.3     101   G103     -0.4989
   3193 C5'        15.9930   30.3590   21.9600 C.3     101   G103      0.0558
   3194 C4'        16.3480   31.6800   21.3080 C.3     101   G103      0.1065
   3195 O4'        17.5000   31.5100   20.4530 O.3     101   G103     -0.3548
   3196 C3'        15.2970   32.2500   20.3780 C.3     101   G103      0.2022
   3197 O3'        14.2880   32.9250   21.1170 O.3     101   G103     -0.5246
   3198 C2'        16.1350   33.2150   19.5460 C.3     101   G103      0.0670
   3199 O2'        16.4180   34.4110   20.2390 O.3     101   G103     -0.6139
   3200 C1'        17.4250   32.4300   19.3720 C.3     101   G103      0.0191
   3201 N9         17.5080   31.7020   18.1060 N.ar    101   G103      0.0492
   3202 C8         17.1180   30.4020   17.8670 C.ar    101   G103      0.1374
   3203 N7         17.3260   30.0100   16.6400 N.ar    101   G103     -0.5709
   3204 C5         17.9020   31.1180   16.0200 C.ar    101   G103      0.1744
   3205 C6         18.3130   31.3030   14.6680 C.2     101   G103      0.4770
   3206 O6         18.3080   30.4750   13.7480 O.2     101   G103     -0.5597
   3207 N1         18.8130   32.5890   14.4390 N.am    101   G103     -0.4787
   3208 C2         18.9000   33.5810   15.3930 C.2     101   G103      0.7657
   3209 N2         19.4260   34.7560   14.9830 N.pl3   101   G103     -0.9672
   3210 N3         18.4940   33.4310   16.6640 N.2     101   G103     -0.6323
   3211 C4         18.0110   32.1750   16.9060 C.ar    101   G103      0.1222
   3212 H5'        16.7557   30.1066   22.6967 H       101   G103      0.0679
   3213 H5''       15.0278   30.4511   22.4580 H       101   G103      0.0679
   3214 H4'        16.5791   32.4123   22.0816 H       101   G103      0.1174
   3215 H3'        14.8653   31.4690   19.7521 H       101   G103      0.0615
   3216 H2'        15.6641   33.4183   18.5842 H       101   G103      0.0972
   3217 H1'        18.2673   33.1188   19.4374 H       101   G103      0.2006
   3218 H8         16.6813   29.7675   18.6240 H       101   G103      0.1640
   3219 H1         19.1339   32.8071   13.5065 H       101   G103      0.3424
   3220 H21        19.7294   34.8669   14.0261 H       101   G103      0.4364
   3221 H22        19.5158   35.5234   15.6334 H       101   G103      0.4364
   3222 HO2'       15.5958   34.8441   20.4797 H       101   G103      0.4186
   3223 P          12.7390   32.6800   20.7760 P.3     102   A104      1.1662
   3224 OP1        12.1760   31.7640   21.8070 O.co2   102   A104     -0.7760
   3225 OP2        12.6280   32.3180   19.3380 O.co2   102   A104     -0.7760
   3226 O5'        12.0950   34.1370   20.9540 O.3     102   A104     -0.4989
   3227 C5'        12.2670   34.8600   22.1550 C.3     102   A104      0.0558
   3228 C4'        12.8850   36.2060   21.8680 C.3     102   A104      0.1065
   3229 O4'        14.1250   36.0030   21.1460 O.3     102   A104     -0.3548
   3230 C3'        12.0660   37.1080   20.9530 C.3     102   A104      0.2022
   3231 O3'        11.0660   37.8050   21.6840 O.3     102   A104     -0.5246
   3232 C2'        13.1420   38.0410   20.3720 C.3     102   A104      0.0670
   3233 O2'        13.4730   39.1250   21.2320 O.3     102   A104     -0.6139
   3234 C1'        14.3360   37.0790   20.2320 C.3     102   A104      0.0394
   3235 N9         14.4870   36.5250   18.8830 N.ar    102   A104     -0.0251
   3236 C8         13.6240   35.6770   18.2320 C.ar    102   A104      0.2006
   3237 N7         13.9850   35.3830   17.0030 N.ar    102   A104     -0.6073
   3238 C5         15.1840   36.0510   16.8480 C.ar    102   A104      0.0515
   3239 C6         16.0910   36.1300   15.7740 C.ar    102   A104      0.7009
   3240 N6         15.9070   35.5080   14.6060 N.pl3   102   A104     -0.9019
   3241 N1         17.2030   36.8830   15.9460 N.ar    102   A104     -0.7615
   3242 C2         17.3980   37.4960   17.1220 C.ar    102   A104      0.5875
   3243 N3         16.6130   37.5070   18.1970 N.ar    102   A104     -0.6997
   3244 C4         15.5060   36.7670   17.9940 C.ar    102   A104      0.3053
   3245 H5'        12.9206   34.2987   22.8227 H       102   A104      0.0679
   3246 H5''       11.2979   35.0020   22.6332 H       102   A104      0.0679
   3247 H4'        13.0879   36.7231   22.8058 H       102   A104      0.1174
   3248 H3'        11.6087   36.5202   20.1571 H       102   A104      0.0615
   3249 H2'        12.8358   38.4117   19.3938 H       102   A104      0.0972
   3250 H1'        15.2509   37.6046   20.5057 H       102   A104      0.2007
   3251 H8         12.7274   35.2862   18.6901 H       102   A104      0.1553
   3252 H2         18.3167   38.0571   17.2092 H       102   A104      0.0473
   3253 HO2'       13.5063   39.9387   20.7237 H       102   A104      0.4186
   3254 H61        15.0827   34.9432   14.4590 H       102   A104      0.4115
   3255 H62        16.5922   35.6026   13.8700 H       102   A104      0.4115
   3256 P           9.5090   37.4090   21.5200 P.3     103   G105      1.1662
   3257 OP1         8.7140   38.6670   21.6500 O.co2   103   G105     -0.7760
   3258 OP2         9.2270   36.2650   22.4250 O.co2   103   G105     -0.7760
   3259 O5'         9.3980   36.8520   20.0150 O.3     103   G105     -0.4989
   3260 C5'         8.6990   37.5810   19.0160 C.3     103   G105      0.0558
   3261 C4'         9.5180   37.7020   17.7470 C.3     103   G105      0.1065
   3262 O4'        10.6000   36.7280   17.7520 O.3     103   G105     -0.3548
   3263 C3'         8.7530   37.4280   16.4740 C.3     103   G105      0.2022
   3264 O3'         8.1070   38.5920   16.0370 O.3     103   G105     -0.5246
   3265 C2'         9.8580   36.9850   15.5210 C.3     103   G105      0.0670
   3266 O2'        10.5810   38.0610   14.9520 O.3     103   G105     -0.6139
   3267 C1'        10.7660   36.1930   16.4540 C.3     103   G105      0.0191
   3268 N9         10.5030   34.7480   16.4750 N.ar    103   G105      0.0492
   3269 C8         10.0730   33.9880   17.5370 C.ar    103   G105      0.1374
   3270 N7         10.0420   32.7070   17.2830 N.ar    103   G105     -0.5709
   3271 C5         10.4420   32.6150   15.9570 C.ar    103   G105      0.1744
   3272 C6         10.5790   31.4780   15.1080 C.2     103   G105      0.4770
   3273 O6         10.3760   30.2870   15.3730 O.2     103   G105     -0.5597
   3274 N1         10.9850   31.8370   13.8250 N.am    103   G105     -0.4787
   3275 C2         11.2890   33.1230   13.4290 C.2     103   G105      0.7657
   3276 N2         11.7400   33.2760   12.1720 N.pl3   103   G105     -0.9672
   3277 N3         11.1560   34.1890   14.2070 N.2     103   G105     -0.6323
   3278 C4         10.7280   33.8640   15.4500 C.ar    103   G105      0.1222
   3279 H5'         7.7660   37.0656   18.7883 H       103   G105      0.0679
   3280 H5''        8.4738   38.5787   19.3929 H       103   G105      0.0679
   3281 H4'         9.9441   38.7039   17.6951 H       103   G105      0.1174
   3282 H3'         8.0327   36.6240   16.6255 H       103   G105      0.0615
   3283 H2'         9.4546   36.3397   14.7406 H       103   G105      0.0972
   3284 H1'        11.7994   36.3509   16.1455 H       103   G105      0.2006
   3285 H8          9.7882   34.4096   18.4897 H       103   G105      0.1640
   3286 H1         11.0624   31.1033   13.1352 H       103   G105      0.3424
   3287 H21        11.8429   32.4709   11.5709 H       103   G105      0.4364
   3288 H22        11.9759   34.1961   11.8286 H       103   G105      0.4364
   3289 HO2'       11.3790   38.2164   15.4625 H       103   G105      0.4186
   3290 P           6.6550   38.5050   15.3560 P.3     104   A106      1.1662
   3291 OP1         6.1130   39.8880   15.2680 O.co2   104   A106     -0.7760
   3292 OP2         5.8630   37.4490   16.0390 O.co2   104   A106     -0.7760
   3293 O5'         6.9880   37.9680   13.8890 O.3     104   A106     -0.4989
   3294 C5'         7.6840   38.7890   12.9590 C.3     104   A106      0.0558
   3295 C4'         8.0800   37.9900   11.7270 C.3     104   A106      0.1065
   3296 O4'         8.9840   36.9170   12.1020 O.3     104   A106     -0.3548
   3297 C3'         6.9480   37.2680   11.0270 C.3     104   A106      0.2022
   3298 O3'         6.1860   38.1520   10.2220 O.3     104   A106     -0.5246
   3299 C2'         7.7200   36.2090   10.2310 C.3     104   A106      0.0670
   3300 O2'         8.3750   36.7210    9.0760 O.3     104   A106     -0.6139
   3301 C1'         8.7540   35.7810   11.2710 C.3     104   A106      0.0394
   3302 N9          8.3080   34.6680   12.1120 N.ar    104   A106     -0.0251
   3303 C8          7.6990   34.7510   13.3450 C.ar    104   A106      0.2006
   3304 N7          7.3730   33.5860   13.8640 N.ar    104   A106     -0.6073
   3305 C5          7.8090   32.6690   12.9150 C.ar    104   A106      0.0515
   3306 C6          7.7700   31.2540   12.8670 C.ar    104   A106      0.7009
   3307 N6          7.2730   30.4980   13.8520 N.pl3   104   A106     -0.9019
   3308 N1          8.2620   30.6490   11.7560 N.ar    104   A106     -0.7615
   3309 C2          8.7260   31.4100   10.7510 C.ar    104   A106      0.5875
   3310 N3          8.8660   32.7390   10.6990 N.ar    104   A106     -0.6997
   3311 C4          8.3660   33.3200   11.8150 C.ar    104   A106      0.3053
   3312 H5'         7.0388   39.6143   12.6578 H       104   A106      0.0679
   3313 H5''        8.5810   39.1880   13.4325 H       104   A106      0.0679
   3314 H4'         8.5795   38.6489   11.0167 H       104   A106      0.1174
   3315 H3'         6.3039   36.7850   11.7618 H       104   A106      0.0615
   3316 H2'         7.0699   35.3747    9.9676 H       104   A106      0.0972
   3317 H1'         9.6813   35.5062   10.7682 H       104   A106      0.2007
   3318 H8          7.5059   35.6900   13.8424 H       104   A106      0.1553
   3319 H2          9.0275   30.8749    9.8626 H       104   A106      0.0473
   3320 HO2'        8.1061   36.2163    8.3049 H       104   A106      0.4186
   3321 H61         7.7426   29.6282   13.6447 H       104   A106      0.4115
   3322 H62         6.6200   30.7290   14.5871 H       104   A106      0.4115
   3323 P           4.5890   37.9840   10.1580 P.3     105   A107      1.1662
   3324 OP1         4.0190   39.2320    9.5760 O.co2   105   A107     -0.7760
   3325 OP2         4.0940   37.5040   11.4760 O.co2   105   A107     -0.7760
   3326 O5'         4.4180   36.7700    9.1180 O.3     105   A107     -0.4989
   3327 C5'         4.8090   36.9220    7.7470 C.3     105   A107      0.0558
   3328 C4'         4.9860   35.5710    7.0660 C.3     105   A107      0.1065
   3329 O4'         5.9550   34.7770    7.8010 O.3     105   A107     -0.3548
   3330 C3'         3.7550   34.6830    7.0240 C.3     105   A107      0.2022
   3331 O3'         2.8500   35.0680    5.9890 O.3     105   A107     -0.5246
   3332 C2'         4.3920   33.3110    6.7940 C.3     105   A107      0.0670
   3333 O2'         4.8090   33.0850    5.4520 O.3     105   A107     -0.6139
   3334 C1'         5.6010   33.3970    7.7250 C.3     105   A107      0.0394
   3335 N9          5.3090   32.8980    9.0750 N.ar    105   A107     -0.0251
   3336 C8          4.7810   33.6120   10.1270 C.ar    105   A107      0.2006
   3337 N7          4.5000   32.8810   11.1830 N.ar    105   A107     -0.6073
   3338 C5          4.8450   31.5930   10.7970 C.ar    105   A107      0.0515
   3339 C6          4.8060   30.3460   11.4760 C.ar    105   A107      0.7009
   3340 N6          4.3920   30.2090   12.7440 N.pl3   105   A107     -0.9019
   3341 N1          5.2300   29.2460   10.8000 N.ar    105   A107     -0.7615
   3342 C2          5.6270   29.3810    9.5200 C.ar    105   A107      0.5875
   3343 N3          5.7040   30.4940    8.7770 N.ar    105   A107     -0.6997
   3344 C4          5.3110   31.5790    9.4850 C.ar    105   A107      0.3053
   3345 H5'         4.0401   37.4867    7.2197 H       105   A107      0.0679
   3346 H5''        5.7496   37.4709    7.7022 H       105   A107      0.0679
   3347 H4'         5.3488   35.7275    6.0501 H       105   A107      0.1174
   3348 H3'         3.2482   34.7020    7.9888 H       105   A107      0.0615
   3349 H2'         3.7172   32.5196    7.1202 H       105   A107      0.0972
   3350 H1'         6.4297   32.8314    7.2990 H       105   A107      0.2007
   3351 H8          4.6126   34.6781   10.0882 H       105   A107      0.1553
   3352 H2          5.9237   28.4682    9.0249 H       105   A107      0.0473
   3353 HO2'        4.2469   32.4189    5.0496 H       105   A107      0.4186
   3354 H61         4.0802   31.0171   13.2636 H       105   A107      0.4115
   3355 H62         4.3919   29.2977   13.1795 H       105   A107      0.4115
   3356 P           1.2730   34.7770    6.1640 P.3     106   G108      1.1662
   3357 OP1         0.5400   35.5340    5.1190 O.co2   106   G108     -0.7760
   3358 OP2         0.9090   34.9780    7.5870 O.co2   106   G108     -0.7760
   3359 O5'         1.1690   33.2090    5.8430 O.3     106   G108     -0.4989
   3360 C5'         1.5070   32.7230    4.5380 C.3     106   G108      0.0558
   3361 C4'         1.6760   31.2130    4.5320 C.3     106   G108      0.1065
   3362 O4'         2.7220   30.8270    5.4620 O.3     106   G108     -0.3548
   3363 C3'         0.4680   30.4230    4.9930 C.3     106   G108      0.2022
   3364 O3'        -0.4910   30.2910    3.9630 O.3     106   G108     -0.5246
   3365 C2'         1.1000   29.0910    5.3800 C.3     106   G108      0.0670
   3366 O2'         1.3600   28.2420    4.2710 O.3     106   G108     -0.6139
   3367 C1'         2.4030   29.5590    6.0350 C.3     106   G108      0.0191
   3368 N9          2.2780   29.6980    7.4920 N.ar    106   G108      0.0492
   3369 C8          2.0240   30.8520    8.2030 C.ar    106   G108      0.1374
   3370 N7          1.8720   30.6540    9.4860 N.ar    106   G108     -0.5709
   3371 C5          1.9830   29.2780    9.6340 C.ar    106   G108      0.1744
   3372 C6          1.9230   28.4710   10.8060 C.2     106   G108      0.4770
   3373 O6          1.7350   28.8340   11.9790 O.2     106   G108     -0.5597
   3374 N1          2.1090   27.1100   10.5120 N.am    106   G108     -0.4787
   3375 C2          2.3210   26.5980    9.2430 C.2     106   G108      0.7657
   3376 N2          2.4580   25.2660    9.1460 N.pl3   106   G108     -0.9672
   3377 N3          2.3740   27.3440    8.1420 N.2     106   G108     -0.6323
   3378 C4          2.2100   28.6700    8.4110 C.ar    106   G108      0.1222
   3379 H5'         0.7120   32.9929    3.8429 H       106   G108      0.0679
   3380 H5''        2.4380   33.1879    4.2138 H       106   G108      0.0679
   3381 H4'         1.9529   30.8888    3.5288 H       106   G108      0.1174
   3382 H3'         0.0198   30.8956    5.8670 H       106   G108      0.0615
   3383 H2'         0.4755   28.5760    6.1100 H       106   G108      0.0972
   3384 H1'         3.1978   28.8489    5.8065 H       106   G108      0.2006
   3385 H8          1.9570   31.8270    7.7433 H       106   G108      0.1640
   3386 H1          2.0865   26.4573   11.2824 H       106   G108      0.3424
   3387 H21         2.4118   24.6918    9.9756 H       106   G108      0.4364
   3388 H22         2.6073   24.8381    8.2434 H       106   G108      0.4364
   3389 HO2'        1.0817   27.3474    4.4801 H       106   G108      0.4186
   3390 P          -2.0470   30.2320    4.3520 P.3     107   A109      1.1662
   3391 OP1        -2.8450   30.3350    3.1030 O.co2   107   A109     -0.7760
   3392 OP2        -2.2860   31.2020    5.4480 O.co2   107   A109     -0.7760
   3393 O5'        -2.2080   28.7510    4.9600 O.3     107   A109     -0.4989
   3394 C5'        -1.9970   27.6040    4.1260 C.3     107   A109      0.0558
   3395 C4'        -1.8910   26.3280    4.9440 C.3     107   A109      0.1065
   3396 O4'        -0.8760   26.4650    5.9680 O.3     107   A109     -0.3548
   3397 C3'        -3.1320   25.9470    5.7190 C.3     107   A109      0.2022
   3398 O3'        -4.1000   25.3410    4.8620 O.3     107   A109     -0.5246
   3399 C2'        -2.5550   24.9680    6.7380 C.3     107   A109      0.0670
   3400 O2'        -2.3340   23.6750    6.2010 O.3     107   A109     -0.6139
   3401 C1'        -1.2220   25.6370    7.0800 C.3     107   A109      0.0394
   3402 N9         -1.2720   26.4530    8.3050 N.ar    107   A109     -0.0251
   3403 C8         -1.4160   27.8170    8.3930 C.ar    107   A109      0.2006
   3404 N7         -1.4480   28.2740    9.6260 N.ar    107   A109     -0.6073
   3405 C5         -1.3120   27.1380   10.4060 C.ar    107   A109      0.0515
   3406 C6         -1.2760   26.9410   11.8080 C.ar    107   A109      0.7009
   3407 N6         -1.3770   27.9390   12.6920 N.pl3   107   A109     -0.9019
   3408 N1         -1.1800   25.6670   12.2640 N.ar    107   A109     -0.7615
   3409 C2         -1.1260   24.6590   11.3740 C.ar    107   A109      0.5875
   3410 N3         -1.1280   24.7180   10.0380 N.ar    107   A109     -0.6997
   3411 C4         -1.2290   25.9990    9.6110 C.ar    107   A109      0.3053
   3412 H5'        -2.8340   27.5116    3.4339 H       107   A109      0.0679
   3413 H5''       -1.0772   27.7407    3.5573 H       107   A109      0.0679
   3414 H4'        -1.6191   25.5049    4.2832 H       107   A109      0.1174
   3415 H3'        -3.5544   26.8181    6.2199 H       107   A109      0.0615
   3416 H2'        -3.1932   24.9126    7.6199 H       107   A109      0.0972
   3417 H1'        -0.4597   24.8670    7.1986 H       107   A109      0.2007
   3418 H8         -1.4958   28.4568    7.5266 H       107   A109      0.1553
   3419 H2         -1.0739   23.6665   11.7966 H       107   A109      0.0473
   3420 HO2'       -2.6857   23.0140    6.8019 H       107   A109      0.4186
   3421 H61        -0.9839   27.7144   13.5949 H       107   A109      0.4115
   3422 H62        -1.8039   28.8290   12.4782 H       107   A109      0.4115
   3423 P          -5.6690   25.5530    5.1470 P.3     108   U110      1.1662
   3424 OP1        -6.4240   25.0410    3.9740 O.co2   108   U110     -0.7760
   3425 OP2        -5.8780   26.9510    5.5970 O.co2   108   U110     -0.7760
   3426 O5'        -5.9330   24.5840    6.3990 O.3     108   U110     -0.4989
   3427 C5'        -5.7500   23.1690    6.2570 C.3     108   U110      0.0558
   3428 C4'        -5.7170   22.4640    7.6020 C.3     108   U110      0.1065
   3429 O4'        -4.6350   22.9650    8.4150 O.3     108   U110     -0.3548
   3430 C3'        -6.9230   22.6740    8.4790 C.3     108   U110      0.2022
   3431 O3'        -8.0030   21.8950    8.0350 O.3     108   U110     -0.5246
   3432 C2'        -6.3910   22.2140    9.8300 C.3     108   U110      0.0670
   3433 O2'        -6.3980   20.8060    9.9870 O.3     108   U110     -0.6139
   3434 C1'        -4.9570   22.7420    9.7890 C.3     108   U110      0.0674
   3435 N1         -4.7700   24.0260   10.5860 N.am    108   U110      0.0418
   3436 C2         -4.6710   23.9620   11.9820 C.2     108   U110      0.4687
   3437 O2         -4.7170   22.9170   12.6200 O.2     108   U110     -0.5477
   3438 N3         -4.5120   25.1870   12.6070 N.am    108   U110     -0.3549
   3439 C4         -4.4600   26.4390   12.0040 C.2     108   U110      0.5952
   3440 O4         -4.3290   27.4430   12.6970 O.2     108   U110     -0.5761
   3441 C5         -4.5920   26.4280   10.5630 C.2     108   U110     -0.3635
   3442 C6         -4.7390   25.2510    9.9220 C.2     108   U110     -0.1126
   3443 H5'        -4.8080   22.9858    5.7401 H       108   U110      0.0679
   3444 H5''       -6.5676   22.7623    5.6618 H       108   U110      0.0679
   3445 H4'        -5.5758   21.3953    7.4405 H       108   U110      0.1174
   3446 H3'        -7.1965   23.7286    8.5116 H       108   U110      0.0615
   3447 H2'        -6.9471   22.6887   10.6384 H       108   U110      0.0972
   3448 H1'        -4.2889   21.9789   10.1882 H       108   U110      0.1824
   3449 H3         -4.4240   25.1694   13.6130 H       108   U110      0.3154
   3450 H5         -4.5730   27.3534   10.0065 H       108   U110      0.1811
   3451 H6         -4.8371   25.2577    8.8465 H       108   U110      0.2188
   3452 HO2'       -6.7713   20.5808   10.8423 H       108   U110      0.4186
   3453 P          -9.4880   22.4630    8.1710 P.3     109   U111      1.1662
   3454 OP1       -10.3970   21.5140    7.4840 O.co2   109   U111     -0.7760
   3455 OP2        -9.4740   23.8920    7.7620 O.co2   109   U111     -0.7760
   3456 O5'        -9.7530   22.4000    9.7590 O.3     109   U111     -0.4989
   3457 C5'        -9.9610   21.1320   10.4140 C.3     109   U111      0.0558
   3458 C4'        -9.7920   21.2420   11.9260 C.3     109   U111      0.1065
   3459 O4'        -8.5430   21.9080   12.2330 O.3     109   U111     -0.3548
   3460 C3'       -10.8550   22.0550   12.6480 C.3     109   U111      0.2022
   3461 O3'       -11.9890   21.2370   12.9520 O.3     109   U111     -0.5246
   3462 C2'       -10.1220   22.5000   13.9140 C.3     109   U111      0.0670
   3463 O2'       -10.1720   21.5350   14.9510 O.3     109   U111     -0.6139
   3464 C1'        -8.6830   22.6810   13.4190 C.3     109   U111      0.0674
   3465 N1         -8.2990   24.1420   13.1390 N.am    109   U111      0.0418
   3466 C2         -7.9140   24.9690   14.2000 C.2     109   U111      0.4687
   3467 O2         -7.8580   24.5980   15.3630 O.2     109   U111     -0.5477
   3468 N3         -7.6110   26.2660   13.8410 N.am    109   U111     -0.3549
   3469 C4         -7.6610   26.8170   12.5670 C.2     109   U111      0.5952
   3470 O4         -7.3330   27.9860   12.4000 O.2     109   U111     -0.5761
   3471 C5         -8.0530   25.9020   11.5190 C.2     109   U111     -0.3635
   3472 C6         -8.3610   24.6330   11.8350 C.2     109   U111     -0.1126
   3473 H5'       -10.9707   20.7838   10.1962 H       109   U111      0.0679
   3474 H5''       -9.2432   20.4088   10.0268 H       109   U111      0.0679
   3475 H4'        -9.7686   20.2384   12.3508 H       109   U111      0.1174
   3476 H3'       -11.1514   22.9177   12.0513 H       109   U111      0.0615
   3477 H2'       -10.5215   23.4513   14.2655 H       109   U111      0.0972
   3478 H1'        -8.0046   22.2832   14.1737 H       109   U111      0.1824
   3479 H3         -7.3209   26.8827   14.5864 H       109   U111      0.3154
   3480 H5         -8.0978   26.2349   10.4926 H       109   U111      0.1811
   3481 H6         -8.6699   23.9643   11.0452 H       109   U111      0.2188
   3482 HO2'      -10.5059   21.9435   15.7530 H       109   U111      0.4186
   3483 P         -13.4720   21.8630   12.9460 P.3     110   C112      1.1662
   3484 OP1       -14.4270   20.7690   13.2760 O.co2   110   C112     -0.7760
   3485 OP2       -13.6450   22.6280   11.6840 O.co2   110   C112     -0.7760
   3486 O5'       -13.4210   22.9260   14.1580 O.3     110   C112     -0.4989
   3487 C5'       -14.2010   22.7310   15.3540 C.3     110   C112      0.0558
   3488 C4'       -13.3220   22.7590   16.6060 C.3     110   C112      0.1065
   3489 O4'       -12.1180   23.5320   16.3650 O.3     110   C112     -0.3548
   3490 C3'       -13.9690   23.3540   17.8530 C.3     110   C112      0.2022
   3491 O3'       -13.5940   22.5990   19.0030 O.3     110   C112     -0.6541
   3492 C2'       -13.4280   24.7920   17.9000 C.3     110   C112      0.0670
   3493 O2'       -13.2440   25.2670   19.2220 O.3     110   C112     -0.6139
   3494 C1'       -12.0750   24.6790   17.2020 C.3     110   C112      0.0066
   3495 N1        -11.7020   25.9070   16.3550 N.am    110   C112     -0.0484
   3496 C2        -11.1890   27.0810   16.9750 C.2     110   C112      0.7538
   3497 O2        -11.0740   27.1290   18.2110 O.2     110   C112     -0.6252
   3498 N3        -10.8340   28.1390   16.1860 N.2     110   C112     -0.7584
   3499 C4        -10.9660   28.0630   14.8520 C.2     110   C112      0.8185
   3500 N4        -10.6050   29.1250   14.1290 N.pl3   110   C112     -0.9530
   3501 C5        -11.4810   26.8930   14.2060 C.2     110   C112     -0.5215
   3502 C6        -11.8330   25.8530   14.9830 C.2     110   C112      0.0053
   3503 H5'       -14.9446   23.5248   15.4254 H       110   C112      0.0679
   3504 H5''      -14.7098   21.7688   15.2960 H       110   C112      0.0679
   3505 H4'       -13.0263   21.7350   16.8344 H       110   C112      0.1174
   3506 H3'       -15.0537   23.3633   17.7462 H       110   C112      0.0615
   3507 H2'       -14.0851   25.4618   17.3453 H       110   C112      0.0972
   3508 H1'       -11.3042   24.5300   17.9581 H       110   C112      0.2029
   3509 H5        -11.5832   26.8474   13.1318 H       110   C112      0.1928
   3510 H6        -12.2259   24.9581   14.5235 H       110   C112      0.1958
   3511 H41       -10.2443   29.9493   14.5878 H       110   C112      0.4234
   3512 H42       -10.6925   29.1045   13.1230 H       110   C112      0.4234
   3513 HO2'      -12.3806   25.6801   19.2968 H       110   C112      0.4186
   3514 HO3'      -14.0044   22.9787   19.7834 H       110   C112      0.4376
@<TRIPOS>BOND
     1    1    2 1
     2    2    3 1
     3    3    5 1
     4    3    4 1
     5    4    9 1
     6    5    7 1
     7    5    6 1
     8    7    9 1
     9    7    8 1
    10    9   10 1
    11   10   20 ar
    12   10   11 ar
    13   11   12 ar
    14   12   13 ar
    15   13   20 ar
    16   13   14 1
    17   14   15 2
    18   14   16 am
    19   16   17 1
    20   17   18 2
    21   17   19 2
    22   19   20 1
    23   33   35 1
    24   33   34 1
    25   33   36 1
    26   36   37 1
    27   37   38 1
    28   38   40 1
    29   38   39 1
    30   39   44 1
    31   40   41 1
    32   40   42 1
    33   42   43 1
    34   42   44 1
    35   44   45 1
    36   45   46 ar
    37   45   55 ar
    38   46   47 ar
    39   47   48 ar
    40   48   55 ar
    41   48   49 1
    42   49   50 2
    43   49   51 am
    44   51   52 1
    45   52   53 2
    46   52   54 2
    47   54   55 1
    48   33    6 1
    49   67   70 1
    50   67   69 1
    51   67   68 1
    52   70   71 1
    53   71   72 1
    54   72   74 1
    55   72   73 1
    56   73   78 1
    57   74   75 1
    58   74   76 1
    59   76   77 1
    60   76   78 1
    61   78   79 1
    62   79   88 ar
    63   79   80 ar
    64   80   81 ar
    65   81   82 ar
    66   82   83 ar
    67   82   88 ar
    68   83   84 1
    69   83   85 ar
    70   85   86 ar
    71   86   87 ar
    72   87   88 ar
    73   41   67 1
    74  100  101 1
    75  100  102 1
    76  100  103 1
    77  103  104 1
    78  104  105 1
    79  105  107 1
    80  105  106 1
    81  106  111 1
    82  107  109 1
    83  107  108 1
    84  109  110 1
    85  109  111 1
    86  111  112 1
    87  112  113 am
    88  112  119 1
    89  113  114 2
    90  113  115 am
    91  115  116 am
    92  116  118 1
    93  116  117 2
    94  118  119 2
    95   75  100 1
    96  130  131 1
    97  130  132 1
    98  130  133 1
    99  133  134 1
   100  134  135 1
   101  135  137 1
   102  135  136 1
   103  136  141 1
   104  137  139 1
   105  137  138 1
   106  139  140 1
   107  139  141 1
   108  141  142 1
   109  142  143 am
   110  142  149 1
   111  143  145 1
   112  143  144 2
   113  145  146 2
   114  146  148 2
   115  146  147 2
   116  148  149 2
   117  108  130 1
   118  161  162 1
   119  161  163 1
   120  161  164 1
   121  164  165 1
   122  165  166 1
   123  166  168 1
   124  166  167 1
   125  167  172 1
   126  168  170 1
   127  168  169 1
   128  170  171 1
   129  170  172 1
   130  172  173 1
   131  173  174 am
   132  173  180 1
   133  174  175 2
   134  174  176 am
   135  176  177 am
   136  177  179 1
   137  177  178 2
   138  179  180 2
   139  138  161 1
   140  191  192 1
   141  191  193 1
   142  191  194 1
   143  194  195 1
   144  195  196 1
   145  196  198 1
   146  196  197 1
   147  197  202 1
   148  198  200 1
   149  198  199 1
   150  200  201 1
   151  200  202 1
   152  202  203 1
   153  203  204 am
   154  203  210 1
   155  204  205 2
   156  204  206 am
   157  206  207 am
   158  207  209 1
   159  207  208 2
   160  209  210 2
   161  169  191 1
   162  221  222 1
   163  221  223 1
   164  221  224 1
   165  224  225 1
   166  225  226 1
   167  226  228 1
   168  226  227 1
   169  227  232 1
   170  228  230 1
   171  228  229 1
   172  230  231 1
   173  230  232 1
   174  232  233 1
   175  233  234 am
   176  233  240 1
   177  234  236 1
   178  234  235 2
   179  236  237 2
   180  237  239 2
   181  237  238 2
   182  239  240 2
   183  199  221 1
   184  252  254 1
   185  252  253 1
   186  252  255 1
   187  255  256 1
   188  256  257 1
   189  257  259 1
   190  257  258 1
   191  258  263 1
   192  259  260 1
   193  259  261 1
   194  261  262 1
   195  261  263 1
   196  263  264 1
   197  264  265 ar
   198  264  274 ar
   199  265  266 ar
   200  266  267 ar
   201  267  274 ar
   202  267  268 1
   203  268  269 2
   204  268  270 am
   205  270  271 1
   206  271  272 2
   207  271  273 2
   208  273  274 1
   209  229  252 1
   210  286  288 1
   211  286  287 1
   212  286  289 1
   213  289  290 1
   214  290  291 1
   215  291  293 1
   216  291  292 1
   217  292  297 1
   218  293  294 1
   219  293  295 1
   220  295  296 1
   221  295  297 1
   222  297  298 1
   223  298  299 ar
   224  298  308 ar
   225  299  300 ar
   226  300  301 ar
   227  301  308 ar
   228  301  302 1
   229  302  303 2
   230  302  304 am
   231  304  305 1
   232  305  306 2
   233  305  307 2
   234  307  308 1
   235  260  286 1
   236  320  322 1
   237  320  321 1
   238  320  323 1
   239  323  324 1
   240  324  325 1
   241  325  327 1
   242  325  326 1
   243  326  331 1
   244  327  328 1
   245  327  329 1
   246  329  330 1
   247  329  331 1
   248  331  332 1
   249  332  333 ar
   250  332  342 ar
   251  333  334 ar
   252  334  335 ar
   253  335  342 ar
   254  335  336 1
   255  336  337 2
   256  336  338 am
   257  338  339 1
   258  339  340 2
   259  339  341 2
   260  341  342 1
   261  294  320 1
   262  354  356 1
   263  354  355 1
   264  354  357 1
   265  357  358 1
   266  358  359 1
   267  359  361 1
   268  359  360 1
   269  360  365 1
   270  361  362 1
   271  361  363 1
   272  363  364 1
   273  363  365 1
   274  365  366 1
   275  366  367 ar
   276  366  376 ar
   277  367  368 ar
   278  368  369 ar
   279  369  376 ar
   280  369  370 1
   281  370  371 2
   282  370  372 am
   283  372  373 1
   284  373  374 2
   285  373  375 2
   286  375  376 1
   287  328  354 1
   288  388  389 1
   289  388  390 1
   290  388  391 1
   291  391  392 1
   292  392  393 1
   293  393  395 1
   294  393  394 1
   295  394  399 1
   296  395  397 1
   297  395  396 1
   298  397  398 1
   299  397  399 1
   300  399  400 1
   301  400  401 am
   302  400  407 1
   303  401  403 1
   304  401  402 2
   305  403  404 2
   306  404  406 2
   307  404  405 2
   308  406  407 2
   309  362  388 1
   310  419  422 1
   311  419  421 1
   312  419  420 1
   313  422  423 1
   314  423  424 1
   315  424  426 1
   316  424  425 1
   317  425  430 1
   318  426  427 1
   319  426  428 1
   320  428  429 1
   321  428  430 1
   322  430  431 1
   323  431  440 ar
   324  431  432 ar
   325  432  433 ar
   326  433  434 ar
   327  434  435 ar
   328  434  440 ar
   329  435  436 1
   330  435  437 ar
   331  437  438 ar
   332  438  439 ar
   333  439  440 ar
   334  396  419 1
   335  452  454 1
   336  452  453 1
   337  452  455 1
   338  455  456 1
   339  456  457 1
   340  457  459 1
   341  457  458 1
   342  458  463 1
   343  459  460 1
   344  459  461 1
   345  461  462 1
   346  461  463 1
   347  463  464 1
   348  464  465 ar
   349  464  474 ar
   350  465  466 ar
   351  466  467 ar
   352  467  474 ar
   353  467  468 1
   354  468  469 2
   355  468  470 am
   356  470  471 1
   357  471  472 2
   358  471  473 2
   359  473  474 1
   360  427  452 1
   361  486  488 1
   362  486  487 1
   363  486  489 1
   364  489  490 1
   365  490  491 1
   366  491  493 1
   367  491  492 1
   368  492  497 1
   369  493  494 1
   370  493  495 1
   371  495  496 1
   372  495  497 1
   373  497  498 1
   374  498  499 ar
   375  498  508 ar
   376  499  500 ar
   377  500  501 ar
   378  501  508 ar
   379  501  502 1
   380  502  503 2
   381  502  504 am
   382  504  505 1
   383  505  506 2
   384  505  507 2
   385  507  508 1
   386  460  486 1
   387  520  522 1
   388  520  521 1
   389  520  523 1
   390  523  524 1
   391  524  525 1
   392  525  527 1
   393  525  526 1
   394  526  531 1
   395  527  528 1
   396  527  529 1
   397  529  530 1
   398  529  531 1
   399  531  532 1
   400  532  533 ar
   401  532  542 ar
   402  533  534 ar
   403  534  535 ar
   404  535  542 ar
   405  535  536 1
   406  536  537 2
   407  536  538 am
   408  538  539 1
   409  539  540 2
   410  539  541 2
   411  541  542 1
   412  494  520 1
   413  554  555 1
   414  554  556 1
   415  554  557 1
   416  557  558 1
   417  558  559 1
   418  559  561 1
   419  559  560 1
   420  560  565 1
   421  561  563 1
   422  561  562 1
   423  563  564 1
   424  563  565 1
   425  565  566 1
   426  566  567 am
   427  566  573 1
   428  567  568 2
   429  567  569 am
   430  569  570 am
   431  570  572 1
   432  570  571 2
   433  572  573 2
   434  528  554 1
   435  584  586 1
   436  584  585 1
   437  584  587 1
   438  587  588 1
   439  588  589 1
   440  589  591 1
   441  589  590 1
   442  590  595 1
   443  591  592 1
   444  591  593 1
   445  593  594 1
   446  593  595 1
   447  595  596 1
   448  596  597 ar
   449  596  606 ar
   450  597  598 ar
   451  598  599 ar
   452  599  606 ar
   453  599  600 1
   454  600  601 2
   455  600  602 am
   456  602  603 1
   457  603  604 2
   458  603  605 2
   459  605  606 1
   460  562  584 1
   461  618  621 1
   462  618  620 1
   463  618  619 1
   464  621  622 1
   465  622  623 1
   466  623  625 1
   467  623  624 1
   468  624  629 1
   469  625  626 1
   470  625  627 1
   471  627  628 1
   472  627  629 1
   473  629  630 1
   474  630  639 ar
   475  630  631 ar
   476  631  632 ar
   477  632  633 ar
   478  633  634 ar
   479  633  639 ar
   480  634  635 1
   481  634  636 ar
   482  636  637 ar
   483  637  638 ar
   484  638  639 ar
   485  592  618 1
   486  651  654 1
   487  651  653 1
   488  651  652 1
   489  654  655 1
   490  655  656 1
   491  656  658 1
   492  656  657 1
   493  657  662 1
   494  658  659 1
   495  658  660 1
   496  660  661 1
   497  660  662 1
   498  662  663 1
   499  663  672 ar
   500  663  664 ar
   501  664  665 ar
   502  665  666 ar
   503  666  667 ar
   504  666  672 ar
   505  667  668 1
   506  667  669 ar
   507  669  670 ar
   508  670  671 ar
   509  671  672 ar
   510  626  651 1
   511  684  687 1
   512  684  686 1
   513  684  685 1
   514  687  688 1
   515  688  689 1
   516  689  691 1
   517  689  690 1
   518  690  695 1
   519  691  692 1
   520  691  693 1
   521  693  694 1
   522  693  695 1
   523  695  696 1
   524  696  705 ar
   525  696  697 ar
   526  697  698 ar
   527  698  699 ar
   528  699  700 ar
   529  699  705 ar
   530  700  701 1
   531  700  702 ar
   532  702  703 ar
   533  703  704 ar
   534  704  705 ar
   535  659  684 1
   536  717  718 1
   537  717  719 1
   538  717  720 1
   539  720  721 1
   540  721  722 1
   541  722  724 1
   542  722  723 1
   543  723  728 1
   544  724  726 1
   545  724  725 1
   546  726  727 1
   547  726  728 1
   548  728  729 1
   549  729  730 am
   550  729  736 1
   551  730  731 2
   552  730  732 am
   553  732  733 am
   554  733  735 1
   555  733  734 2
   556  735  736 2
   557  692  717 1
   558  747  748 1
   559  747  749 1
   560  747  750 1
   561  750  751 1
   562  751  752 1
   563  752  754 1
   564  752  753 1
   565  753  758 1
   566  754  756 1
   567  754  755 1
   568  756  757 1
   569  756  758 1
   570  758  759 1
   571  759  760 am
   572  759  766 1
   573  760  761 2
   574  760  762 am
   575  762  763 am
   576  763  765 1
   577  763  764 2
   578  765  766 2
   579  725  747 1
   580  777  778 1
   581  777  779 1
   582  777  780 1
   583  780  781 1
   584  781  782 1
   585  782  784 1
   586  782  783 1
   587  783  788 1
   588  784  786 1
   589  784  785 1
   590  786  787 1
   591  786  788 1
   592  788  789 1
   593  789  790 am
   594  789  796 1
   595  790  792 1
   596  790  791 2
   597  792  793 2
   598  793  795 2
   599  793  794 2
   600  795  796 2
   601  755  777 1
   602  808  809 1
   603  808  810 1
   604  808  811 1
   605  811  812 1
   606  812  813 1
   607  813  815 1
   608  813  814 1
   609  814  819 1
   610  815  817 1
   611  815  816 1
   612  817  818 1
   613  817  819 1
   614  819  820 1
   615  820  821 am
   616  820  827 1
   617  821  823 1
   618  821  822 2
   619  823  824 2
   620  824  826 2
   621  824  825 2
   622  826  827 2
   623  785  808 1
   624  839  840 1
   625  839  841 1
   626  839  842 1
   627  842  843 1
   628  843  844 1
   629  844  846 1
   630  844  845 1
   631  845  850 1
   632  846  848 1
   633  846  847 1
   634  848  849 1
   635  848  850 1
   636  850  851 1
   637  851  852 am
   638  851  858 1
   639  852  854 1
   640  852  853 2
   641  854  855 2
   642  855  857 2
   643  855  856 2
   644  857  858 2
   645  816  839 1
   646  870  872 1
   647  870  871 1
   648  870  873 1
   649  873  874 1
   650  874  875 1
   651  875  877 1
   652  875  876 1
   653  876  881 1
   654  877  878 1
   655  877  879 1
   656  879  880 1
   657  879  881 1
   658  881  882 1
   659  882  883 ar
   660  882  892 ar
   661  883  884 ar
   662  884  885 ar
   663  885  892 ar
   664  885  886 1
   665  886  887 2
   666  886  888 am
   667  888  889 1
   668  889  890 2
   669  889  891 2
   670  891  892 1
   671  847  870 1
   672  904  907 1
   673  904  906 1
   674  904  905 1
   675  907  908 1
   676  908  909 1
   677  909  911 1
   678  909  910 1
   679  910  915 1
   680  911  912 1
   681  911  913 1
   682  913  914 1
   683  913  915 1
   684  915  916 1
   685  916  925 ar
   686  916  917 ar
   687  917  918 ar
   688  918  919 ar
   689  919  920 ar
   690  919  925 ar
   691  920  921 1
   692  920  922 ar
   693  922  923 ar
   694  923  924 ar
   695  924  925 ar
   696  878  904 1
   697  937  938 1
   698  937  939 1
   699  937  940 1
   700  940  941 1
   701  941  942 1
   702  942  944 1
   703  942  943 1
   704  943  948 1
   705  944  946 1
   706  944  945 1
   707  946  947 1
   708  946  948 1
   709  948  949 1
   710  949  950 am
   711  949  956 1
   712  950  952 1
   713  950  951 2
   714  952  953 2
   715  953  955 2
   716  953  954 2
   717  955  956 2
   718  912  937 1
   719  968  969 1
   720  968  970 1
   721  968  971 1
   722  971  972 1
   723  972  973 1
   724  973  975 1
   725  973  974 1
   726  974  979 1
   727  975  977 1
   728  975  976 1
   729  977  978 1
   730  977  979 1
   731  979  980 1
   732  980  981 am
   733  980  987 1
   734  981  983 1
   735  981  982 2
   736  983  984 2
   737  984  986 2
   738  984  985 2
   739  986  987 2
   740  945  968 1
   741  999 1001 1
   742  999 1000 1
   743  999 1002 1
   744 1002 1003 1
   745 1003 1004 1
   746 1004 1006 1
   747 1004 1005 1
   748 1005 1010 1
   749 1006 1007 1
   750 1006 1008 1
   751 1008 1009 1
   752 1008 1010 1
   753 1010 1011 1
   754 1011 1012 ar
   755 1011 1021 ar
   756 1012 1013 ar
   757 1013 1014 ar
   758 1014 1021 ar
   759 1014 1015 1
   760 1015 1016 2
   761 1015 1017 am
   762 1017 1018 1
   763 1018 1019 2
   764 1018 1020 2
   765 1020 1021 1
   766  976  999 1
   767 1033 1035 1
   768 1033 1034 1
   769 1033 1036 1
   770 1036 1037 1
   771 1037 1038 1
   772 1038 1040 1
   773 1038 1039 1
   774 1039 1044 1
   775 1040 1041 1
   776 1040 1042 1
   777 1042 1043 1
   778 1042 1044 1
   779 1044 1045 1
   780 1045 1046 ar
   781 1045 1055 ar
   782 1046 1047 ar
   783 1047 1048 ar
   784 1048 1055 ar
   785 1048 1049 1
   786 1049 1050 2
   787 1049 1051 am
   788 1051 1052 1
   789 1052 1053 2
   790 1052 1054 2
   791 1054 1055 1
   792 1007 1033 1
   793 1067 1068 1
   794 1067 1069 1
   795 1067 1070 1
   796 1070 1071 1
   797 1071 1072 1
   798 1072 1074 1
   799 1072 1073 1
   800 1073 1078 1
   801 1074 1076 1
   802 1074 1075 1
   803 1076 1077 1
   804 1076 1078 1
   805 1078 1079 1
   806 1079 1080 am
   807 1079 1086 1
   808 1080 1081 2
   809 1080 1082 am
   810 1082 1083 am
   811 1083 1085 1
   812 1083 1084 2
   813 1085 1086 2
   814 1041 1067 1
   815 1097 1099 1
   816 1097 1098 1
   817 1097 1100 1
   818 1100 1101 1
   819 1101 1102 1
   820 1102 1104 1
   821 1102 1103 1
   822 1103 1108 1
   823 1104 1105 1
   824 1104 1106 1
   825 1106 1107 1
   826 1106 1108 1
   827 1108 1109 1
   828 1109 1110 ar
   829 1109 1119 ar
   830 1110 1111 ar
   831 1111 1112 ar
   832 1112 1119 ar
   833 1112 1113 1
   834 1113 1114 2
   835 1113 1115 am
   836 1115 1116 1
   837 1116 1117 2
   838 1116 1118 2
   839 1118 1119 1
   840 1075 1097 1
   841 1131 1133 1
   842 1131 1132 1
   843 1131 1134 1
   844 1134 1135 1
   845 1135 1136 1
   846 1136 1138 1
   847 1136 1137 1
   848 1137 1142 1
   849 1138 1139 1
   850 1138 1140 1
   851 1140 1141 1
   852 1140 1142 1
   853 1142 1143 1
   854 1143 1144 ar
   855 1143 1153 ar
   856 1144 1145 ar
   857 1145 1146 ar
   858 1146 1153 ar
   859 1146 1147 1
   860 1147 1148 2
   861 1147 1149 am
   862 1149 1150 1
   863 1150 1151 2
   864 1150 1152 2
   865 1152 1153 1
   866 1105 1131 1
   867 1165 1166 1
   868 1165 1167 1
   869 1165 1168 1
   870 1168 1169 1
   871 1169 1170 1
   872 1170 1172 1
   873 1170 1171 1
   874 1171 1176 1
   875 1172 1174 1
   876 1172 1173 1
   877 1174 1175 1
   878 1174 1176 1
   879 1176 1177 1
   880 1177 1178 am
   881 1177 1184 1
   882 1178 1179 2
   883 1178 1180 am
   884 1180 1181 am
   885 1181 1183 1
   886 1181 1182 2
   887 1183 1184 2
   888 1139 1165 1
   889 1195 1198 1
   890 1195 1197 1
   891 1195 1196 1
   892 1198 1199 1
   893 1199 1200 1
   894 1200 1202 1
   895 1200 1201 1
   896 1201 1206 1
   897 1202 1203 1
   898 1202 1204 1
   899 1204 1205 1
   900 1204 1206 1
   901 1206 1207 1
   902 1207 1216 ar
   903 1207 1208 ar
   904 1208 1209 ar
   905 1209 1210 ar
   906 1210 1211 ar
   907 1210 1216 ar
   908 1211 1212 1
   909 1211 1213 ar
   910 1213 1214 ar
   911 1214 1215 ar
   912 1215 1216 ar
   913 1173 1195 1
   914 1228 1229 1
   915 1228 1230 1
   916 1228 1231 1
   917 1231 1232 1
   918 1232 1233 1
   919 1233 1235 1
   920 1233 1234 1
   921 1234 1239 1
   922 1235 1237 1
   923 1235 1236 1
   924 1237 1238 1
   925 1237 1239 1
   926 1239 1240 1
   927 1240 1241 am
   928 1240 1247 1
   929 1241 1242 2
   930 1241 1243 am
   931 1243 1244 am
   932 1244 1246 1
   933 1244 1245 2
   934 1246 1247 2
   935 1203 1228 1
   936 1258 1261 1
   937 1258 1260 1
   938 1258 1259 1
   939 1261 1262 1
   940 1262 1263 1
   941 1263 1265 1
   942 1263 1264 1
   943 1264 1269 1
   944 1265 1266 1
   945 1265 1267 1
   946 1267 1268 1
   947 1267 1269 1
   948 1269 1270 1
   949 1270 1279 ar
   950 1270 1271 ar
   951 1271 1272 ar
   952 1272 1273 ar
   953 1273 1274 ar
   954 1273 1279 ar
   955 1274 1275 1
   956 1274 1276 ar
   957 1276 1277 ar
   958 1277 1278 ar
   959 1278 1279 ar
   960 1236 1258 1
   961 1291 1293 1
   962 1291 1292 1
   963 1291 1294 1
   964 1294 1295 1
   965 1295 1296 1
   966 1296 1298 1
   967 1296 1297 1
   968 1297 1302 1
   969 1298 1299 1
   970 1298 1300 1
   971 1300 1301 1
   972 1300 1302 1
   973 1302 1303 1
   974 1303 1304 ar
   975 1303 1313 ar
   976 1304 1305 ar
   977 1305 1306 ar
   978 1306 1313 ar
   979 1306 1307 1
   980 1307 1308 2
   981 1307 1309 am
   982 1309 1310 1
   983 1310 1311 2
   984 1310 1312 2
   985 1312 1313 1
   986 1266 1291 1
   987 1325 1326 1
   988 1325 1327 1
   989 1325 1328 1
   990 1328 1329 1
   991 1329 1330 1
   992 1330 1332 1
   993 1330 1331 1
   994 1331 1336 1
   995 1332 1334 1
   996 1332 1333 1
   997 1334 1335 1
   998 1334 1336 1
   999 1336 1337 1
  1000 1337 1338 am
  1001 1337 1344 1
  1002 1338 1339 2
  1003 1338 1340 am
  1004 1340 1341 am
  1005 1341 1343 1
  1006 1341 1342 2
  1007 1343 1344 2
  1008 1299 1325 1
  1009 1355 1356 1
  1010 1355 1357 1
  1011 1355 1358 1
  1012 1358 1359 1
  1013 1359 1360 1
  1014 1360 1362 1
  1015 1360 1361 1
  1016 1361 1366 1
  1017 1362 1364 1
  1018 1362 1363 1
  1019 1364 1365 1
  1020 1364 1366 1
  1021 1366 1367 1
  1022 1367 1368 am
  1023 1367 1374 1
  1024 1368 1370 1
  1025 1368 1369 2
  1026 1370 1371 2
  1027 1371 1373 2
  1028 1371 1372 2
  1029 1373 1374 2
  1030 1333 1355 1
  1031 1386 1387 1
  1032 1386 1388 1
  1033 1386 1389 1
  1034 1389 1390 1
  1035 1390 1391 1
  1036 1391 1393 1
  1037 1391 1392 1
  1038 1392 1397 1
  1039 1393 1395 1
  1040 1393 1394 1
  1041 1395 1396 1
  1042 1395 1397 1
  1043 1397 1398 1
  1044 1398 1399 am
  1045 1398 1405 1
  1046 1399 1401 1
  1047 1399 1400 2
  1048 1401 1402 2
  1049 1402 1404 2
  1050 1402 1403 2
  1051 1404 1405 2
  1052 1363 1386 1
  1053 1417 1420 1
  1054 1417 1419 1
  1055 1417 1418 1
  1056 1420 1421 1
  1057 1421 1422 1
  1058 1422 1424 1
  1059 1422 1423 1
  1060 1423 1428 1
  1061 1424 1425 1
  1062 1424 1426 1
  1063 1426 1427 1
  1064 1426 1428 1
  1065 1428 1429 1
  1066 1429 1438 ar
  1067 1429 1430 ar
  1068 1430 1431 ar
  1069 1431 1432 ar
  1070 1432 1433 ar
  1071 1432 1438 ar
  1072 1433 1434 1
  1073 1433 1435 ar
  1074 1435 1436 ar
  1075 1436 1437 ar
  1076 1437 1438 ar
  1077 1394 1417 1
  1078 1450 1451 1
  1079 1450 1452 1
  1080 1450 1453 1
  1081 1453 1454 1
  1082 1454 1455 1
  1083 1455 1457 1
  1084 1455 1456 1
  1085 1456 1461 1
  1086 1457 1459 1
  1087 1457 1458 1
  1088 1459 1460 1
  1089 1459 1461 1
  1090 1461 1462 1
  1091 1462 1463 am
  1092 1462 1469 1
  1093 1463 1465 1
  1094 1463 1464 2
  1095 1465 1466 2
  1096 1466 1468 2
  1097 1466 1467 2
  1098 1468 1469 2
  1099 1425 1450 1
  1100 1481 1483 1
  1101 1481 1482 1
  1102 1481 1484 1
  1103 1484 1485 1
  1104 1485 1486 1
  1105 1486 1488 1
  1106 1486 1487 1
  1107 1487 1492 1
  1108 1488 1489 1
  1109 1488 1490 1
  1110 1490 1491 1
  1111 1490 1492 1
  1112 1492 1493 1
  1113 1493 1494 ar
  1114 1493 1503 ar
  1115 1494 1495 ar
  1116 1495 1496 ar
  1117 1496 1503 ar
  1118 1496 1497 1
  1119 1497 1498 2
  1120 1497 1499 am
  1121 1499 1500 1
  1122 1500 1501 2
  1123 1500 1502 2
  1124 1502 1503 1
  1125 1458 1481 1
  1126 1515 1518 1
  1127 1515 1517 1
  1128 1515 1516 1
  1129 1518 1519 1
  1130 1519 1520 1
  1131 1520 1522 1
  1132 1520 1521 1
  1133 1521 1526 1
  1134 1522 1523 1
  1135 1522 1524 1
  1136 1524 1525 1
  1137 1524 1526 1
  1138 1526 1527 1
  1139 1527 1536 ar
  1140 1527 1528 ar
  1141 1528 1529 ar
  1142 1529 1530 ar
  1143 1530 1531 ar
  1144 1530 1536 ar
  1145 1531 1532 1
  1146 1531 1533 ar
  1147 1533 1534 ar
  1148 1534 1535 ar
  1149 1535 1536 ar
  1150 1489 1515 1
  1151 1548 1551 1
  1152 1548 1550 1
  1153 1548 1549 1
  1154 1551 1552 1
  1155 1552 1553 1
  1156 1553 1555 1
  1157 1553 1554 1
  1158 1554 1559 1
  1159 1555 1556 1
  1160 1555 1557 1
  1161 1557 1558 1
  1162 1557 1559 1
  1163 1559 1560 1
  1164 1560 1569 ar
  1165 1560 1561 ar
  1166 1561 1562 ar
  1167 1562 1563 ar
  1168 1563 1564 ar
  1169 1563 1569 ar
  1170 1564 1565 1
  1171 1564 1566 ar
  1172 1566 1567 ar
  1173 1567 1568 ar
  1174 1568 1569 ar
  1175 1523 1548 1
  1176 1581 1584 1
  1177 1581 1583 1
  1178 1581 1582 1
  1179 1584 1585 1
  1180 1585 1586 1
  1181 1586 1588 1
  1182 1586 1587 1
  1183 1587 1592 1
  1184 1588 1589 1
  1185 1588 1590 1
  1186 1590 1591 1
  1187 1590 1592 1
  1188 1592 1593 1
  1189 1593 1602 ar
  1190 1593 1594 ar
  1191 1594 1595 ar
  1192 1595 1596 ar
  1193 1596 1597 ar
  1194 1596 1602 ar
  1195 1597 1598 1
  1196 1597 1599 ar
  1197 1599 1600 ar
  1198 1600 1601 ar
  1199 1601 1602 ar
  1200 1556 1581 1
  1201 1614 1616 1
  1202 1614 1615 1
  1203 1614 1617 1
  1204 1617 1618 1
  1205 1618 1619 1
  1206 1619 1621 1
  1207 1619 1620 1
  1208 1620 1625 1
  1209 1621 1622 1
  1210 1621 1623 1
  1211 1623 1624 1
  1212 1623 1625 1
  1213 1625 1626 1
  1214 1626 1627 ar
  1215 1626 1636 ar
  1216 1627 1628 ar
  1217 1628 1629 ar
  1218 1629 1636 ar
  1219 1629 1630 1
  1220 1630 1631 2
  1221 1630 1632 am
  1222 1632 1633 1
  1223 1633 1634 2
  1224 1633 1635 2
  1225 1635 1636 1
  1226 1589 1614 1
  1227 1648 1649 1
  1228 1648 1650 1
  1229 1648 1651 1
  1230 1651 1652 1
  1231 1652 1653 1
  1232 1653 1655 1
  1233 1653 1654 1
  1234 1654 1659 1
  1235 1655 1657 1
  1236 1655 1656 1
  1237 1657 1658 1
  1238 1657 1659 1
  1239 1659 1660 1
  1240 1660 1661 am
  1241 1660 1667 1
  1242 1661 1663 1
  1243 1661 1662 2
  1244 1663 1664 2
  1245 1664 1666 2
  1246 1664 1665 2
  1247 1666 1667 2
  1248 1622 1648 1
  1249 1679 1680 1
  1250 1679 1681 1
  1251 1679 1682 1
  1252 1682 1683 1
  1253 1683 1684 1
  1254 1684 1686 1
  1255 1684 1685 1
  1256 1685 1690 1
  1257 1686 1688 1
  1258 1686 1687 1
  1259 1688 1689 1
  1260 1688 1690 1
  1261 1690 1691 1
  1262 1691 1692 am
  1263 1691 1698 1
  1264 1692 1693 2
  1265 1692 1694 am
  1266 1694 1695 am
  1267 1695 1697 1
  1268 1695 1696 2
  1269 1697 1698 2
  1270 1656 1679 1
  1271 1709 1710 1
  1272 1709 1711 1
  1273 1709 1712 1
  1274 1687 1709 1
  1275 1714 1715 1
  1276 1715 1716 1
  1277 1716 1718 1
  1278 1716 1717 1
  1279 1717 1722 1
  1280 1718 1720 1
  1281 1718 1719 1
  1282 1720 1722 1
  1283 1720 1721 1
  1284 1722 1723 1
  1285 1723 1733 ar
  1286 1723 1724 ar
  1287 1724 1725 ar
  1288 1725 1726 ar
  1289 1726 1733 ar
  1290 1726 1727 1
  1291 1727 1728 2
  1292 1727 1729 am
  1293 1729 1730 1
  1294 1730 1731 2
  1295 1730 1732 2
  1296 1732 1733 1
  1297 1746 1747 1
  1298 1746 1748 1
  1299 1746 1749 1
  1300 1749 1750 1
  1301 1750 1751 1
  1302 1751 1753 1
  1303 1751 1752 1
  1304 1752 1757 1
  1305 1753 1755 1
  1306 1753 1754 1
  1307 1755 1756 1
  1308 1755 1757 1
  1309 1757 1758 1
  1310 1758 1759 am
  1311 1758 1765 1
  1312 1759 1761 1
  1313 1759 1760 2
  1314 1761 1762 2
  1315 1762 1764 2
  1316 1762 1763 2
  1317 1764 1765 2
  1318 1746 1719 1
  1319 1777 1778 1
  1320 1777 1779 1
  1321 1777 1780 1
  1322 1780 1781 1
  1323 1781 1782 1
  1324 1782 1784 1
  1325 1782 1783 1
  1326 1783 1788 1
  1327 1784 1786 1
  1328 1784 1785 1
  1329 1786 1787 1
  1330 1786 1788 1
  1331 1788 1789 1
  1332 1789 1790 am
  1333 1789 1796 1
  1334 1790 1791 2
  1335 1790 1792 am
  1336 1792 1793 am
  1337 1793 1795 1
  1338 1793 1794 2
  1339 1795 1796 2
  1340 1754 1777 1
  1341 1807 1808 1
  1342 1807 1809 1
  1343 1807 1810 1
  1344 1810 1811 1
  1345 1811 1812 1
  1346 1812 1814 1
  1347 1812 1813 1
  1348 1813 1818 1
  1349 1814 1816 1
  1350 1814 1815 1
  1351 1816 1817 1
  1352 1816 1818 1
  1353 1818 1819 1
  1354 1819 1820 am
  1355 1819 1826 1
  1356 1820 1821 2
  1357 1820 1822 am
  1358 1822 1823 am
  1359 1823 1825 1
  1360 1823 1824 2
  1361 1825 1826 2
  1362 1785 1807 1
  1363 1837 1838 1
  1364 1837 1839 1
  1365 1837 1840 1
  1366 1840 1841 1
  1367 1841 1842 1
  1368 1842 1844 1
  1369 1842 1843 1
  1370 1843 1848 1
  1371 1844 1846 1
  1372 1844 1845 1
  1373 1846 1847 1
  1374 1846 1848 1
  1375 1848 1849 1
  1376 1849 1850 am
  1377 1849 1856 1
  1378 1850 1851 2
  1379 1850 1852 am
  1380 1852 1853 am
  1381 1853 1855 1
  1382 1853 1854 2
  1383 1855 1856 2
  1384 1815 1837 1
  1385 1867 1869 1
  1386 1867 1868 1
  1387 1867 1870 1
  1388 1870 1871 1
  1389 1871 1872 1
  1390 1872 1874 1
  1391 1872 1873 1
  1392 1873 1878 1
  1393 1874 1875 1
  1394 1874 1876 1
  1395 1876 1877 1
  1396 1876 1878 1
  1397 1878 1879 1
  1398 1879 1880 ar
  1399 1879 1889 ar
  1400 1880 1881 ar
  1401 1881 1882 ar
  1402 1882 1889 ar
  1403 1882 1883 1
  1404 1883 1884 2
  1405 1883 1885 am
  1406 1885 1886 1
  1407 1886 1887 2
  1408 1886 1888 2
  1409 1888 1889 1
  1410 1845 1867 1
  1411 1901 1904 1
  1412 1901 1903 1
  1413 1901 1902 1
  1414 1904 1905 1
  1415 1905 1906 1
  1416 1906 1908 1
  1417 1906 1907 1
  1418 1907 1912 1
  1419 1908 1909 1
  1420 1908 1910 1
  1421 1910 1911 1
  1422 1910 1912 1
  1423 1912 1913 1
  1424 1913 1922 ar
  1425 1913 1914 ar
  1426 1914 1915 ar
  1427 1915 1916 ar
  1428 1916 1917 ar
  1429 1916 1922 ar
  1430 1917 1918 1
  1431 1917 1919 ar
  1432 1919 1920 ar
  1433 1920 1921 ar
  1434 1921 1922 ar
  1435 1875 1901 1
  1436 1934 1935 1
  1437 1934 1936 1
  1438 1934 1937 1
  1439 1937 1938 1
  1440 1938 1939 1
  1441 1939 1941 1
  1442 1939 1940 1
  1443 1940 1945 1
  1444 1941 1943 1
  1445 1941 1942 1
  1446 1943 1944 1
  1447 1943 1945 1
  1448 1945 1946 1
  1449 1946 1947 am
  1450 1946 1953 1
  1451 1947 1948 2
  1452 1947 1949 am
  1453 1949 1950 am
  1454 1950 1952 1
  1455 1950 1951 2
  1456 1952 1953 2
  1457 1909 1934 1
  1458 1964 1965 1
  1459 1964 1966 1
  1460 1964 1967 1
  1461 1967 1968 1
  1462 1968 1969 1
  1463 1969 1971 1
  1464 1969 1970 1
  1465 1970 1975 1
  1466 1971 1973 1
  1467 1971 1972 1
  1468 1973 1974 1
  1469 1973 1975 1
  1470 1975 1976 1
  1471 1976 1977 am
  1472 1976 1983 1
  1473 1977 1978 2
  1474 1977 1979 am
  1475 1979 1980 am
  1476 1980 1982 1
  1477 1980 1981 2
  1478 1982 1983 2
  1479 1942 1964 1
  1480 1994 1995 1
  1481 1994 1996 1
  1482 1994 1997 1
  1483 1997 1998 1
  1484 1998 1999 1
  1485 1999 2001 1
  1486 1999 2000 1
  1487 2000 2005 1
  1488 2001 2003 1
  1489 2001 2002 1
  1490 2003 2004 1
  1491 2003 2005 1
  1492 2005 2006 1
  1493 2006 2007 am
  1494 2006 2013 1
  1495 2007 2008 2
  1496 2007 2009 am
  1497 2009 2010 am
  1498 2010 2012 1
  1499 2010 2011 2
  1500 2012 2013 2
  1501 1972 1994 1
  1502 2024 2026 1
  1503 2024 2025 1
  1504 2024 2027 1
  1505 2027 2028 1
  1506 2028 2029 1
  1507 2029 2031 1
  1508 2029 2030 1
  1509 2030 2035 1
  1510 2031 2032 1
  1511 2031 2033 1
  1512 2033 2034 1
  1513 2033 2035 1
  1514 2035 2036 1
  1515 2036 2037 ar
  1516 2036 2046 ar
  1517 2037 2038 ar
  1518 2038 2039 ar
  1519 2039 2046 ar
  1520 2039 2040 1
  1521 2040 2041 2
  1522 2040 2042 am
  1523 2042 2043 1
  1524 2043 2044 2
  1525 2043 2045 2
  1526 2045 2046 1
  1527 2002 2024 1
  1528 2058 2060 1
  1529 2058 2059 1
  1530 2058 2061 1
  1531 2061 2062 1
  1532 2062 2063 1
  1533 2063 2065 1
  1534 2063 2064 1
  1535 2064 2069 1
  1536 2065 2066 1
  1537 2065 2067 1
  1538 2067 2068 1
  1539 2067 2069 1
  1540 2069 2070 1
  1541 2070 2071 ar
  1542 2070 2080 ar
  1543 2071 2072 ar
  1544 2072 2073 ar
  1545 2073 2080 ar
  1546 2073 2074 1
  1547 2074 2075 2
  1548 2074 2076 am
  1549 2076 2077 1
  1550 2077 2078 2
  1551 2077 2079 2
  1552 2079 2080 1
  1553 2032 2058 1
  1554 2092 2093 1
  1555 2092 2094 1
  1556 2092 2095 1
  1557 2095 2096 1
  1558 2096 2097 1
  1559 2097 2099 1
  1560 2097 2098 1
  1561 2098 2103 1
  1562 2099 2101 1
  1563 2099 2100 1
  1564 2101 2102 1
  1565 2101 2103 1
  1566 2103 2104 1
  1567 2104 2105 am
  1568 2104 2111 1
  1569 2105 2106 2
  1570 2105 2107 am
  1571 2107 2108 am
  1572 2108 2110 1
  1573 2108 2109 2
  1574 2110 2111 2
  1575 2066 2092 1
  1576 2122 2124 1
  1577 2122 2123 1
  1578 2122 2125 1
  1579 2125 2126 1
  1580 2126 2127 1
  1581 2127 2129 1
  1582 2127 2128 1
  1583 2128 2133 1
  1584 2129 2130 1
  1585 2129 2131 1
  1586 2131 2132 1
  1587 2131 2133 1
  1588 2133 2134 1
  1589 2134 2135 ar
  1590 2134 2144 ar
  1591 2135 2136 ar
  1592 2136 2137 ar
  1593 2137 2144 ar
  1594 2137 2138 1
  1595 2138 2139 2
  1596 2138 2140 am
  1597 2140 2141 1
  1598 2141 2142 2
  1599 2141 2143 2
  1600 2143 2144 1
  1601 2100 2122 1
  1602 2156 2159 1
  1603 2156 2158 1
  1604 2156 2157 1
  1605 2159 2160 1
  1606 2160 2161 1
  1607 2161 2163 1
  1608 2161 2162 1
  1609 2162 2167 1
  1610 2163 2164 1
  1611 2163 2165 1
  1612 2165 2166 1
  1613 2165 2167 1
  1614 2167 2168 1
  1615 2168 2177 ar
  1616 2168 2169 ar
  1617 2169 2170 ar
  1618 2170 2171 ar
  1619 2171 2172 ar
  1620 2171 2177 ar
  1621 2172 2173 1
  1622 2172 2174 ar
  1623 2174 2175 ar
  1624 2175 2176 ar
  1625 2176 2177 ar
  1626 2130 2156 1
  1627 2189 2192 1
  1628 2189 2191 1
  1629 2189 2190 1
  1630 2192 2193 1
  1631 2193 2194 1
  1632 2194 2196 1
  1633 2194 2195 1
  1634 2195 2200 1
  1635 2196 2197 1
  1636 2196 2198 1
  1637 2198 2199 1
  1638 2198 2200 1
  1639 2200 2201 1
  1640 2201 2210 ar
  1641 2201 2202 ar
  1642 2202 2203 ar
  1643 2203 2204 ar
  1644 2204 2205 ar
  1645 2204 2210 ar
  1646 2205 2206 1
  1647 2205 2207 ar
  1648 2207 2208 ar
  1649 2208 2209 ar
  1650 2209 2210 ar
  1651 2164 2189 1
  1652 2222 2225 1
  1653 2222 2224 1
  1654 2222 2223 1
  1655 2225 2226 1
  1656 2226 2227 1
  1657 2227 2229 1
  1658 2227 2228 1
  1659 2228 2233 1
  1660 2229 2230 1
  1661 2229 2231 1
  1662 2231 2232 1
  1663 2231 2233 1
  1664 2233 2234 1
  1665 2234 2243 ar
  1666 2234 2235 ar
  1667 2235 2236 ar
  1668 2236 2237 ar
  1669 2237 2238 ar
  1670 2237 2243 ar
  1671 2238 2239 1
  1672 2238 2240 ar
  1673 2240 2241 ar
  1674 2241 2242 ar
  1675 2242 2243 ar
  1676 2197 2222 1
  1677 2255 2256 1
  1678 2255 2257 1
  1679 2255 2258 1
  1680 2258 2259 1
  1681 2259 2260 1
  1682 2260 2262 1
  1683 2260 2261 1
  1684 2261 2266 1
  1685 2262 2264 1
  1686 2262 2263 1
  1687 2264 2265 1
  1688 2264 2266 1
  1689 2266 2267 1
  1690 2267 2268 am
  1691 2267 2274 1
  1692 2268 2269 2
  1693 2268 2270 am
  1694 2270 2271 am
  1695 2271 2273 1
  1696 2271 2272 2
  1697 2273 2274 2
  1698 2230 2255 1
  1699 2285 2286 1
  1700 2285 2287 1
  1701 2285 2288 1
  1702 2288 2289 1
  1703 2289 2290 1
  1704 2290 2292 1
  1705 2290 2291 1
  1706 2291 2296 1
  1707 2292 2294 1
  1708 2292 2293 1
  1709 2294 2295 1
  1710 2294 2296 1
  1711 2296 2297 1
  1712 2297 2298 am
  1713 2297 2304 1
  1714 2298 2299 2
  1715 2298 2300 am
  1716 2300 2301 am
  1717 2301 2303 1
  1718 2301 2302 2
  1719 2303 2304 2
  1720 2263 2285 1
  1721 2315 2316 1
  1722 2315 2317 1
  1723 2315 2318 1
  1724 2318 2319 1
  1725 2319 2320 1
  1726 2320 2322 1
  1727 2320 2321 1
  1728 2321 2326 1
  1729 2322 2324 1
  1730 2322 2323 1
  1731 2324 2325 1
  1732 2324 2326 1
  1733 2326 2327 1
  1734 2327 2328 am
  1735 2327 2334 1
  1736 2328 2330 1
  1737 2328 2329 2
  1738 2330 2331 2
  1739 2331 2333 2
  1740 2331 2332 2
  1741 2333 2334 2
  1742 2293 2315 1
  1743 2346 2347 1
  1744 2346 2348 1
  1745 2346 2349 1
  1746 2349 2350 1
  1747 2350 2351 1
  1748 2351 2353 1
  1749 2351 2352 1
  1750 2352 2357 1
  1751 2353 2355 1
  1752 2353 2354 1
  1753 2355 2356 1
  1754 2355 2357 1
  1755 2357 2358 1
  1756 2358 2359 am
  1757 2358 2365 1
  1758 2359 2361 1
  1759 2359 2360 2
  1760 2361 2362 2
  1761 2362 2364 2
  1762 2362 2363 2
  1763 2364 2365 2
  1764 2323 2346 1
  1765 2377 2380 1
  1766 2377 2379 1
  1767 2377 2378 1
  1768 2380 2381 1
  1769 2381 2382 1
  1770 2382 2384 1
  1771 2382 2383 1
  1772 2383 2388 1
  1773 2384 2385 1
  1774 2384 2386 1
  1775 2386 2387 1
  1776 2386 2388 1
  1777 2388 2389 1
  1778 2389 2398 ar
  1779 2389 2390 ar
  1780 2390 2391 ar
  1781 2391 2392 ar
  1782 2392 2393 ar
  1783 2392 2398 ar
  1784 2393 2394 1
  1785 2393 2395 ar
  1786 2395 2396 ar
  1787 2396 2397 ar
  1788 2397 2398 ar
  1789 2354 2377 1
  1790 2410 2413 1
  1791 2410 2412 1
  1792 2410 2411 1
  1793 2413 2414 1
  1794 2414 2415 1
  1795 2415 2417 1
  1796 2415 2416 1
  1797 2416 2421 1
  1798 2417 2418 1
  1799 2417 2419 1
  1800 2419 2420 1
  1801 2419 2421 1
  1802 2421 2422 1
  1803 2422 2431 ar
  1804 2422 2423 ar
  1805 2423 2424 ar
  1806 2424 2425 ar
  1807 2425 2426 ar
  1808 2425 2431 ar
  1809 2426 2427 1
  1810 2426 2428 ar
  1811 2428 2429 ar
  1812 2429 2430 ar
  1813 2430 2431 ar
  1814 2385 2410 1
  1815 2443 2446 1
  1816 2443 2445 1
  1817 2443 2444 1
  1818 2446 2447 1
  1819 2447 2448 1
  1820 2448 2450 1
  1821 2448 2449 1
  1822 2449 2454 1
  1823 2450 2451 1
  1824 2450 2452 1
  1825 2452 2453 1
  1826 2452 2454 1
  1827 2454 2455 1
  1828 2455 2464 ar
  1829 2455 2456 ar
  1830 2456 2457 ar
  1831 2457 2458 ar
  1832 2458 2459 ar
  1833 2458 2464 ar
  1834 2459 2460 1
  1835 2459 2461 ar
  1836 2461 2462 ar
  1837 2462 2463 ar
  1838 2463 2464 ar
  1839 2418 2443 1
  1840 2476 2479 1
  1841 2476 2478 1
  1842 2476 2477 1
  1843 2479 2480 1
  1844 2480 2481 1
  1845 2481 2483 1
  1846 2481 2482 1
  1847 2482 2487 1
  1848 2483 2484 1
  1849 2483 2485 1
  1850 2485 2486 1
  1851 2485 2487 1
  1852 2487 2488 1
  1853 2488 2497 ar
  1854 2488 2489 ar
  1855 2489 2490 ar
  1856 2490 2491 ar
  1857 2491 2492 ar
  1858 2491 2497 ar
  1859 2492 2493 1
  1860 2492 2494 ar
  1861 2494 2495 ar
  1862 2495 2496 ar
  1863 2496 2497 ar
  1864 2451 2476 1
  1865 2509 2510 1
  1866 2509 2511 1
  1867 2509 2512 1
  1868 2512 2513 1
  1869 2513 2514 1
  1870 2514 2516 1
  1871 2514 2515 1
  1872 2515 2520 1
  1873 2516 2518 1
  1874 2516 2517 1
  1875 2518 2519 1
  1876 2518 2520 1
  1877 2520 2521 1
  1878 2521 2522 am
  1879 2521 2528 1
  1880 2522 2524 1
  1881 2522 2523 2
  1882 2524 2525 2
  1883 2525 2527 2
  1884 2525 2526 2
  1885 2527 2528 2
  1886 2484 2509 1
  1887 2540 2541 1
  1888 2540 2542 1
  1889 2540 2543 1
  1890 2543 2544 1
  1891 2544 2545 1
  1892 2545 2547 1
  1893 2545 2546 1
  1894 2546 2551 1
  1895 2547 2549 1
  1896 2547 2548 1
  1897 2549 2550 1
  1898 2549 2551 1
  1899 2551 2552 1
  1900 2552 2553 am
  1901 2552 2559 1
  1902 2553 2555 1
  1903 2553 2554 2
  1904 2555 2556 2
  1905 2556 2558 2
  1906 2556 2557 2
  1907 2558 2559 2
  1908 2517 2540 1
  1909 2571 2573 1
  1910 2571 2572 1
  1911 2571 2574 1
  1912 2574 2575 1
  1913 2575 2576 1
  1914 2576 2578 1
  1915 2576 2577 1
  1916 2577 2582 1
  1917 2578 2579 1
  1918 2578 2580 1
  1919 2580 2581 1
  1920 2580 2582 1
  1921 2582 2583 1
  1922 2583 2584 ar
  1923 2583 2593 ar
  1924 2584 2585 ar
  1925 2585 2586 ar
  1926 2586 2593 ar
  1927 2586 2587 1
  1928 2587 2588 2
  1929 2587 2589 am
  1930 2589 2590 1
  1931 2590 2591 2
  1932 2590 2592 2
  1933 2592 2593 1
  1934 2548 2571 1
  1935 2605 2608 1
  1936 2605 2607 1
  1937 2605 2606 1
  1938 2608 2609 1
  1939 2609 2610 1
  1940 2610 2612 1
  1941 2610 2611 1
  1942 2611 2616 1
  1943 2612 2613 1
  1944 2612 2614 1
  1945 2614 2615 1
  1946 2614 2616 1
  1947 2616 2617 1
  1948 2617 2626 ar
  1949 2617 2618 ar
  1950 2618 2619 ar
  1951 2619 2620 ar
  1952 2620 2621 ar
  1953 2620 2626 ar
  1954 2621 2622 1
  1955 2621 2623 ar
  1956 2623 2624 ar
  1957 2624 2625 ar
  1958 2625 2626 ar
  1959 2579 2605 1
  1960 2638 2639 1
  1961 2638 2640 1
  1962 2638 2641 1
  1963 2641 2642 1
  1964 2642 2643 1
  1965 2643 2645 1
  1966 2643 2644 1
  1967 2644 2649 1
  1968 2645 2647 1
  1969 2645 2646 1
  1970 2647 2648 1
  1971 2647 2649 1
  1972 2649 2650 1
  1973 2650 2651 am
  1974 2650 2657 1
  1975 2651 2653 1
  1976 2651 2652 2
  1977 2653 2654 2
  1978 2654 2656 2
  1979 2654 2655 2
  1980 2656 2657 2
  1981 2613 2638 1
  1982 2669 2672 1
  1983 2669 2671 1
  1984 2669 2670 1
  1985 2672 2673 1
  1986 2673 2674 1
  1987 2674 2676 1
  1988 2674 2675 1
  1989 2675 2680 1
  1990 2676 2677 1
  1991 2676 2678 1
  1992 2678 2679 1
  1993 2678 2680 1
  1994 2680 2681 1
  1995 2681 2690 ar
  1996 2681 2682 ar
  1997 2682 2683 ar
  1998 2683 2684 ar
  1999 2684 2685 ar
  2000 2684 2690 ar
  2001 2685 2686 1
  2002 2685 2687 ar
  2003 2687 2688 ar
  2004 2688 2689 ar
  2005 2689 2690 ar
  2006 2646 2669 1
  2007 2702 2704 1
  2008 2702 2703 1
  2009 2702 2705 1
  2010 2705 2706 1
  2011 2706 2707 1
  2012 2707 2709 1
  2013 2707 2708 1
  2014 2708 2713 1
  2015 2709 2710 1
  2016 2709 2711 1
  2017 2711 2712 1
  2018 2711 2713 1
  2019 2713 2714 1
  2020 2714 2715 ar
  2021 2714 2724 ar
  2022 2715 2716 ar
  2023 2716 2717 ar
  2024 2717 2724 ar
  2025 2717 2718 1
  2026 2718 2719 2
  2027 2718 2720 am
  2028 2720 2721 1
  2029 2721 2722 2
  2030 2721 2723 2
  2031 2723 2724 1
  2032 2677 2702 1
  2033 2736 2737 1
  2034 2736 2738 1
  2035 2736 2739 1
  2036 2739 2740 1
  2037 2740 2741 1
  2038 2741 2743 1
  2039 2741 2742 1
  2040 2742 2747 1
  2041 2743 2745 1
  2042 2743 2744 1
  2043 2745 2746 1
  2044 2745 2747 1
  2045 2747 2748 1
  2046 2748 2749 am
  2047 2748 2755 1
  2048 2749 2750 2
  2049 2749 2751 am
  2050 2751 2752 am
  2051 2752 2754 1
  2052 2752 2753 2
  2053 2754 2755 2
  2054 2710 2736 1
  2055 2766 2769 1
  2056 2766 2768 1
  2057 2766 2767 1
  2058 2769 2770 1
  2059 2770 2771 1
  2060 2771 2773 1
  2061 2771 2772 1
  2062 2772 2777 1
  2063 2773 2774 1
  2064 2773 2775 1
  2065 2775 2776 1
  2066 2775 2777 1
  2067 2777 2778 1
  2068 2778 2787 ar
  2069 2778 2779 ar
  2070 2779 2780 ar
  2071 2780 2781 ar
  2072 2781 2782 ar
  2073 2781 2787 ar
  2074 2782 2783 1
  2075 2782 2784 ar
  2076 2784 2785 ar
  2077 2785 2786 ar
  2078 2786 2787 ar
  2079 2744 2766 1
  2080 2799 2801 1
  2081 2799 2800 1
  2082 2799 2802 1
  2083 2802 2803 1
  2084 2803 2804 1
  2085 2804 2806 1
  2086 2804 2805 1
  2087 2805 2810 1
  2088 2806 2807 1
  2089 2806 2808 1
  2090 2808 2809 1
  2091 2808 2810 1
  2092 2810 2811 1
  2093 2811 2812 ar
  2094 2811 2821 ar
  2095 2812 2813 ar
  2096 2813 2814 ar
  2097 2814 2821 ar
  2098 2814 2815 1
  2099 2815 2816 2
  2100 2815 2817 am
  2101 2817 2818 1
  2102 2818 2819 2
  2103 2818 2820 2
  2104 2820 2821 1
  2105 2774 2799 1
  2106 2833 2836 1
  2107 2833 2835 1
  2108 2833 2834 1
  2109 2836 2837 1
  2110 2837 2838 1
  2111 2838 2840 1
  2112 2838 2839 1
  2113 2839 2844 1
  2114 2840 2841 1
  2115 2840 2842 1
  2116 2842 2843 1
  2117 2842 2844 1
  2118 2844 2845 1
  2119 2845 2854 ar
  2120 2845 2846 ar
  2121 2846 2847 ar
  2122 2847 2848 ar
  2123 2848 2849 ar
  2124 2848 2854 ar
  2125 2849 2850 1
  2126 2849 2851 ar
  2127 2851 2852 ar
  2128 2852 2853 ar
  2129 2853 2854 ar
  2130 2807 2833 1
  2131 2866 2868 1
  2132 2866 2867 1
  2133 2866 2869 1
  2134 2869 2870 1
  2135 2870 2871 1
  2136 2871 2873 1
  2137 2871 2872 1
  2138 2872 2877 1
  2139 2873 2874 1
  2140 2873 2875 1
  2141 2875 2876 1
  2142 2875 2877 1
  2143 2877 2878 1
  2144 2878 2879 ar
  2145 2878 2888 ar
  2146 2879 2880 ar
  2147 2880 2881 ar
  2148 2881 2888 ar
  2149 2881 2882 1
  2150 2882 2883 2
  2151 2882 2884 am
  2152 2884 2885 1
  2153 2885 2886 2
  2154 2885 2887 2
  2155 2887 2888 1
  2156 2841 2866 1
  2157 2900 2901 1
  2158 2900 2902 1
  2159 2900 2903 1
  2160 2903 2904 1
  2161 2904 2905 1
  2162 2905 2907 1
  2163 2905 2906 1
  2164 2906 2911 1
  2165 2907 2909 1
  2166 2907 2908 1
  2167 2909 2910 1
  2168 2909 2911 1
  2169 2911 2912 1
  2170 2912 2913 am
  2171 2912 2919 1
  2172 2913 2914 2
  2173 2913 2915 am
  2174 2915 2916 am
  2175 2916 2918 1
  2176 2916 2917 2
  2177 2918 2919 2
  2178 2874 2900 1
  2179 2930 2931 1
  2180 2930 2932 1
  2181 2930 2933 1
  2182 2933 2934 1
  2183 2934 2935 1
  2184 2935 2937 1
  2185 2935 2936 1
  2186 2936 2941 1
  2187 2937 2939 1
  2188 2937 2938 1
  2189 2939 2940 1
  2190 2939 2941 1
  2191 2941 2942 1
  2192 2942 2943 am
  2193 2942 2949 1
  2194 2943 2945 1
  2195 2943 2944 2
  2196 2945 2946 2
  2197 2946 2948 2
  2198 2946 2947 2
  2199 2948 2949 2
  2200 2908 2930 1
  2201 2961 2962 1
  2202 2961 2963 1
  2203 2961 2964 1
  2204 2964 2965 1
  2205 2965 2966 1
  2206 2966 2968 1
  2207 2966 2967 1
  2208 2967 2972 1
  2209 2968 2970 1
  2210 2968 2969 1
  2211 2970 2971 1
  2212 2970 2972 1
  2213 2972 2973 1
  2214 2973 2974 am
  2215 2973 2980 1
  2216 2974 2975 2
  2217 2974 2976 am
  2218 2976 2977 am
  2219 2977 2979 1
  2220 2977 2978 2
  2221 2979 2980 2
  2222 2938 2961 1
  2223 2991 2993 1
  2224 2991 2992 1
  2225 2991 2994 1
  2226 2994 2995 1
  2227 2995 2996 1
  2228 2996 2998 1
  2229 2996 2997 1
  2230 2997 3002 1
  2231 2998 2999 1
  2232 2998 3000 1
  2233 3000 3001 1
  2234 3000 3002 1
  2235 3002 3003 1
  2236 3003 3004 ar
  2237 3003 3013 ar
  2238 3004 3005 ar
  2239 3005 3006 ar
  2240 3006 3013 ar
  2241 3006 3007 1
  2242 3007 3008 2
  2243 3007 3009 am
  2244 3009 3010 1
  2245 3010 3011 2
  2246 3010 3012 2
  2247 3012 3013 1
  2248 2969 2991 1
  2249 3025 3027 1
  2250 3025 3026 1
  2251 3025 3028 1
  2252 3028 3029 1
  2253 3029 3030 1
  2254 3030 3032 1
  2255 3030 3031 1
  2256 3031 3036 1
  2257 3032 3033 1
  2258 3032 3034 1
  2259 3034 3035 1
  2260 3034 3036 1
  2261 3036 3037 1
  2262 3037 3038 ar
  2263 3037 3047 ar
  2264 3038 3039 ar
  2265 3039 3040 ar
  2266 3040 3047 ar
  2267 3040 3041 1
  2268 3041 3042 2
  2269 3041 3043 am
  2270 3043 3044 1
  2271 3044 3045 2
  2272 3044 3046 2
  2273 3046 3047 1
  2274 2999 3025 1
  2275 3059 3062 1
  2276 3059 3061 1
  2277 3059 3060 1
  2278 3062 3063 1
  2279 3063 3064 1
  2280 3064 3066 1
  2281 3064 3065 1
  2282 3065 3070 1
  2283 3066 3067 1
  2284 3066 3068 1
  2285 3068 3069 1
  2286 3068 3070 1
  2287 3070 3071 1
  2288 3071 3080 ar
  2289 3071 3072 ar
  2290 3072 3073 ar
  2291 3073 3074 ar
  2292 3074 3075 ar
  2293 3074 3080 ar
  2294 3075 3076 1
  2295 3075 3077 ar
  2296 3077 3078 ar
  2297 3078 3079 ar
  2298 3079 3080 ar
  2299 3033 3059 1
  2300 3092 3093 1
  2301 3092 3094 1
  2302 3092 3095 1
  2303 3095 3096 1
  2304 3096 3097 1
  2305 3097 3099 1
  2306 3097 3098 1
  2307 3098 3103 1
  2308 3099 3101 1
  2309 3099 3100 1
  2310 3101 3102 1
  2311 3101 3103 1
  2312 3103 3104 1
  2313 3104 3105 am
  2314 3104 3111 1
  2315 3105 3106 2
  2316 3105 3107 am
  2317 3107 3108 am
  2318 3108 3110 1
  2319 3108 3109 2
  2320 3110 3111 2
  2321 3067 3092 1
  2322 3122 3124 1
  2323 3122 3123 1
  2324 3122 3125 1
  2325 3125 3126 1
  2326 3126 3127 1
  2327 3127 3129 1
  2328 3127 3128 1
  2329 3128 3133 1
  2330 3129 3130 1
  2331 3129 3131 1
  2332 3131 3132 1
  2333 3131 3133 1
  2334 3133 3134 1
  2335 3134 3135 ar
  2336 3134 3144 ar
  2337 3135 3136 ar
  2338 3136 3137 ar
  2339 3137 3144 ar
  2340 3137 3138 1
  2341 3138 3139 2
  2342 3138 3140 am
  2343 3140 3141 1
  2344 3141 3142 2
  2345 3141 3143 2
  2346 3143 3144 1
  2347 3100 3122 1
  2348 3156 3159 1
  2349 3156 3158 1
  2350 3156 3157 1
  2351 3159 3160 1
  2352 3160 3161 1
  2353 3161 3163 1
  2354 3161 3162 1
  2355 3162 3167 1
  2356 3163 3164 1
  2357 3163 3165 1
  2358 3165 3166 1
  2359 3165 3167 1
  2360 3167 3168 1
  2361 3168 3177 ar
  2362 3168 3169 ar
  2363 3169 3170 ar
  2364 3170 3171 ar
  2365 3171 3172 ar
  2366 3171 3177 ar
  2367 3172 3173 1
  2368 3172 3174 ar
  2369 3174 3175 ar
  2370 3175 3176 ar
  2371 3176 3177 ar
  2372 3130 3156 1
  2373 3189 3191 1
  2374 3189 3190 1
  2375 3189 3192 1
  2376 3192 3193 1
  2377 3193 3194 1
  2378 3194 3196 1
  2379 3194 3195 1
  2380 3195 3200 1
  2381 3196 3197 1
  2382 3196 3198 1
  2383 3198 3199 1
  2384 3198 3200 1
  2385 3200 3201 1
  2386 3201 3202 ar
  2387 3201 3211 ar
  2388 3202 3203 ar
  2389 3203 3204 ar
  2390 3204 3211 ar
  2391 3204 3205 1
  2392 3205 3206 2
  2393 3205 3207 am
  2394 3207 3208 1
  2395 3208 3209 2
  2396 3208 3210 2
  2397 3210 3211 1
  2398 3164 3189 1
  2399 3223 3226 1
  2400 3223 3225 1
  2401 3223 3224 1
  2402 3226 3227 1
  2403 3227 3228 1
  2404 3228 3230 1
  2405 3228 3229 1
  2406 3229 3234 1
  2407 3230 3231 1
  2408 3230 3232 1
  2409 3232 3233 1
  2410 3232 3234 1
  2411 3234 3235 1
  2412 3235 3244 ar
  2413 3235 3236 ar
  2414 3236 3237 ar
  2415 3237 3238 ar
  2416 3238 3239 ar
  2417 3238 3244 ar
  2418 3239 3240 1
  2419 3239 3241 ar
  2420 3241 3242 ar
  2421 3242 3243 ar
  2422 3243 3244 ar
  2423 3197 3223 1
  2424 3256 3258 1
  2425 3256 3257 1
  2426 3256 3259 1
  2427 3259 3260 1
  2428 3260 3261 1
  2429 3261 3263 1
  2430 3261 3262 1
  2431 3262 3267 1
  2432 3263 3264 1
  2433 3263 3265 1
  2434 3265 3266 1
  2435 3265 3267 1
  2436 3267 3268 1
  2437 3268 3269 ar
  2438 3268 3278 ar
  2439 3269 3270 ar
  2440 3270 3271 ar
  2441 3271 3278 ar
  2442 3271 3272 1
  2443 3272 3273 2
  2444 3272 3274 am
  2445 3274 3275 1
  2446 3275 3276 2
  2447 3275 3277 2
  2448 3277 3278 1
  2449 3231 3256 1
  2450 3290 3293 1
  2451 3290 3292 1
  2452 3290 3291 1
  2453 3293 3294 1
  2454 3294 3295 1
  2455 3295 3297 1
  2456 3295 3296 1
  2457 3296 3301 1
  2458 3297 3298 1
  2459 3297 3299 1
  2460 3299 3300 1
  2461 3299 3301 1
  2462 3301 3302 1
  2463 3302 3311 ar
  2464 3302 3303 ar
  2465 3303 3304 ar
  2466 3304 3305 ar
  2467 3305 3306 ar
  2468 3305 3311 ar
  2469 3306 3307 1
  2470 3306 3308 ar
  2471 3308 3309 ar
  2472 3309 3310 ar
  2473 3310 3311 ar
  2474 3264 3290 1
  2475 3323 3326 1
  2476 3323 3325 1
  2477 3323 3324 1
  2478 3326 3327 1
  2479 3327 3328 1
  2480 3328 3330 1
  2481 3328 3329 1
  2482 3329 3334 1
  2483 3330 3331 1
  2484 3330 3332 1
  2485 3332 3333 1
  2486 3332 3334 1
  2487 3334 3335 1
  2488 3335 3344 ar
  2489 3335 3336 ar
  2490 3336 3337 ar
  2491 3337 3338 ar
  2492 3338 3339 ar
  2493 3338 3344 ar
  2494 3339 3340 1
  2495 3339 3341 ar
  2496 3341 3342 ar
  2497 3342 3343 ar
  2498 3343 3344 ar
  2499 3298 3323 1
  2500 3356 3358 1
  2501 3356 3357 1
  2502 3356 3359 1
  2503 3359 3360 1
  2504 3360 3361 1
  2505 3361 3363 1
  2506 3361 3362 1
  2507 3362 3367 1
  2508 3363 3364 1
  2509 3363 3365 1
  2510 3365 3366 1
  2511 3365 3367 1
  2512 3367 3368 1
  2513 3368 3369 ar
  2514 3368 3378 ar
  2515 3369 3370 ar
  2516 3370 3371 ar
  2517 3371 3378 ar
  2518 3371 3372 1
  2519 3372 3373 2
  2520 3372 3374 am
  2521 3374 3375 1
  2522 3375 3376 2
  2523 3375 3377 2
  2524 3377 3378 1
  2525 3331 3356 1
  2526 3390 3393 1
  2527 3390 3392 1
  2528 3390 3391 1
  2529 3393 3394 1
  2530 3394 3395 1
  2531 3395 3397 1
  2532 3395 3396 1
  2533 3396 3401 1
  2534 3397 3398 1
  2535 3397 3399 1
  2536 3399 3400 1
  2537 3399 3401 1
  2538 3401 3402 1
  2539 3402 3411 ar
  2540 3402 3403 ar
  2541 3403 3404 ar
  2542 3404 3405 ar
  2543 3405 3406 ar
  2544 3405 3411 ar
  2545 3406 3407 1
  2546 3406 3408 ar
  2547 3408 3409 ar
  2548 3409 3410 ar
  2549 3410 3411 ar
  2550 3364 3390 1
  2551 3423 3424 1
  2552 3423 3425 1
  2553 3423 3426 1
  2554 3426 3427 1
  2555 3427 3428 1
  2556 3428 3430 1
  2557 3428 3429 1
  2558 3429 3434 1
  2559 3430 3432 1
  2560 3430 3431 1
  2561 3432 3433 1
  2562 3432 3434 1
  2563 3434 3435 1
  2564 3435 3436 am
  2565 3435 3442 1
  2566 3436 3437 2
  2567 3436 3438 am
  2568 3438 3439 am
  2569 3439 3441 1
  2570 3439 3440 2
  2571 3441 3442 2
  2572 3398 3423 1
  2573 3453 3454 1
  2574 3453 3455 1
  2575 3453 3456 1
  2576 3456 3457 1
  2577 3457 3458 1
  2578 3458 3460 1
  2579 3458 3459 1
  2580 3459 3464 1
  2581 3460 3462 1
  2582 3460 3461 1
  2583 3462 3463 1
  2584 3462 3464 1
  2585 3464 3465 1
  2586 3465 3466 am
  2587 3465 3472 1
  2588 3466 3467 2
  2589 3466 3468 am
  2590 3468 3469 am
  2591 3469 3471 1
  2592 3469 3470 2
  2593 3471 3472 2
  2594 3431 3453 1
  2595 3486 3487 1
  2596 3487 3488 1
  2597 3488 3490 1
  2598 3488 3489 1
  2599 3489 3494 1
  2600 3490 3492 1
  2601 3490 3491 1
  2602 3492 3493 1
  2603 3492 3494 1
  2604 3494 3495 1
  2605 3495 3502 1
  2606 3495 3496 am
  2607 3496 3497 2
  2608 3496 3498 1
  2609 3498 3499 2
  2610 3499 3501 2
  2611 3499 3500 2
  2612 3501 3502 2
  2613 3483 3484 1
  2614 3483 3485 1
  2615 3483 3486 1
  2616 3461 3483 1
  2617   21    2 1
  2618   22    2 1
  2619   23    3 1
  2620   24    5 1
  2621   25    7 1
  2622   26    9 1
  2623   27   11 1
  2624   28   16 1
  2625   56   37 1
  2626   57   37 1
  2627   58   38 1
  2628   59   40 1
  2629   60   42 1
  2630   61   44 1
  2631   62   46 1
  2632   63   51 1
  2633   89   71 1
  2634   90   71 1
  2635   91   72 1
  2636   92   74 1
  2637   93   76 1
  2638   94   78 1
  2639   95   80 1
  2640   96   86 1
  2641  120  104 1
  2642  121  104 1
  2643  122  105 1
  2644  123  107 1
  2645  124  109 1
  2646  125  111 1
  2647  126  115 1
  2648  127  118 1
  2649  128  119 1
  2650  150  134 1
  2651  151  134 1
  2652  152  135 1
  2653  153  137 1
  2654  154  139 1
  2655  155  141 1
  2656  156  148 1
  2657  157  149 1
  2658  181  165 1
  2659  182  165 1
  2660  183  166 1
  2661  184  168 1
  2662  185  170 1
  2663  186  172 1
  2664  187  176 1
  2665  188  179 1
  2666  189  180 1
  2667  211  195 1
  2668  212  195 1
  2669  213  196 1
  2670  214  198 1
  2671  215  200 1
  2672  216  202 1
  2673  217  206 1
  2674  218  209 1
  2675  219  210 1
  2676  241  225 1
  2677  242  225 1
  2678  243  226 1
  2679  244  228 1
  2680  245  230 1
  2681  246  232 1
  2682  247  239 1
  2683  248  240 1
  2684  275  256 1
  2685  276  256 1
  2686  277  257 1
  2687  278  259 1
  2688  279  261 1
  2689  280  263 1
  2690  281  265 1
  2691  282  270 1
  2692  309  290 1
  2693  310  290 1
  2694  311  291 1
  2695  312  293 1
  2696  313  295 1
  2697  314  297 1
  2698  315  299 1
  2699  316  304 1
  2700  343  324 1
  2701  344  324 1
  2702  345  325 1
  2703  346  327 1
  2704  347  329 1
  2705  348  331 1
  2706  349  333 1
  2707  350  338 1
  2708  377  358 1
  2709  378  358 1
  2710  379  359 1
  2711  380  361 1
  2712  381  363 1
  2713  382  365 1
  2714  383  367 1
  2715  384  372 1
  2716  408  392 1
  2717  409  392 1
  2718  410  393 1
  2719  411  395 1
  2720  412  397 1
  2721  413  399 1
  2722  414  406 1
  2723  415  407 1
  2724  441  423 1
  2725  442  423 1
  2726  443  424 1
  2727  444  426 1
  2728  445  428 1
  2729  446  430 1
  2730  447  432 1
  2731  448  438 1
  2732  475  456 1
  2733  476  456 1
  2734  477  457 1
  2735  478  459 1
  2736  479  461 1
  2737  480  463 1
  2738  481  465 1
  2739  482  470 1
  2740  509  490 1
  2741  510  490 1
  2742  511  491 1
  2743  512  493 1
  2744  513  495 1
  2745  514  497 1
  2746  515  499 1
  2747  516  504 1
  2748  543  524 1
  2749  544  524 1
  2750  545  525 1
  2751  546  527 1
  2752  547  529 1
  2753  548  531 1
  2754  549  533 1
  2755  550  538 1
  2756  574  558 1
  2757  575  558 1
  2758  576  559 1
  2759  577  561 1
  2760  578  563 1
  2761  579  565 1
  2762  580  569 1
  2763  581  572 1
  2764  582  573 1
  2765  607  588 1
  2766  608  588 1
  2767  609  589 1
  2768  610  591 1
  2769  611  593 1
  2770  612  595 1
  2771  613  597 1
  2772  614  602 1
  2773  640  622 1
  2774  641  622 1
  2775  642  623 1
  2776  643  625 1
  2777  644  627 1
  2778  645  629 1
  2779  646  631 1
  2780  647  637 1
  2781  673  655 1
  2782  674  655 1
  2783  675  656 1
  2784  676  658 1
  2785  677  660 1
  2786  678  662 1
  2787  679  664 1
  2788  680  670 1
  2789  706  688 1
  2790  707  688 1
  2791  708  689 1
  2792  709  691 1
  2793  710  693 1
  2794  711  695 1
  2795  712  697 1
  2796  713  703 1
  2797  737  721 1
  2798  738  721 1
  2799  739  722 1
  2800  740  724 1
  2801  741  726 1
  2802  742  728 1
  2803  743  732 1
  2804  744  735 1
  2805  745  736 1
  2806  767  751 1
  2807  768  751 1
  2808  769  752 1
  2809  770  754 1
  2810  771  756 1
  2811  772  758 1
  2812  773  762 1
  2813  774  765 1
  2814  775  766 1
  2815  797  781 1
  2816  798  781 1
  2817  799  782 1
  2818  800  784 1
  2819  801  786 1
  2820  802  788 1
  2821  803  795 1
  2822  804  796 1
  2823  828  812 1
  2824  829  812 1
  2825  830  813 1
  2826  831  815 1
  2827  832  817 1
  2828  833  819 1
  2829  834  826 1
  2830  835  827 1
  2831  859  843 1
  2832  860  843 1
  2833  861  844 1
  2834  862  846 1
  2835  863  848 1
  2836  864  850 1
  2837  865  857 1
  2838  866  858 1
  2839  893  874 1
  2840  894  874 1
  2841  895  875 1
  2842  896  877 1
  2843  897  879 1
  2844  898  881 1
  2845  899  883 1
  2846  900  888 1
  2847  926  908 1
  2848  927  908 1
  2849  928  909 1
  2850  929  911 1
  2851  930  913 1
  2852  931  915 1
  2853  932  917 1
  2854  933  923 1
  2855  957  941 1
  2856  958  941 1
  2857  959  942 1
  2858  960  944 1
  2859  961  946 1
  2860  962  948 1
  2861  963  955 1
  2862  964  956 1
  2863  988  972 1
  2864  989  972 1
  2865  990  973 1
  2866  991  975 1
  2867  992  977 1
  2868  993  979 1
  2869  994  986 1
  2870  995  987 1
  2871 1022 1003 1
  2872 1023 1003 1
  2873 1024 1004 1
  2874 1025 1006 1
  2875 1026 1008 1
  2876 1027 1010 1
  2877 1028 1012 1
  2878 1029 1017 1
  2879 1056 1037 1
  2880 1057 1037 1
  2881 1058 1038 1
  2882 1059 1040 1
  2883 1060 1042 1
  2884 1061 1044 1
  2885 1062 1046 1
  2886 1063 1051 1
  2887 1087 1071 1
  2888 1088 1071 1
  2889 1089 1072 1
  2890 1090 1074 1
  2891 1091 1076 1
  2892 1092 1078 1
  2893 1093 1082 1
  2894 1094 1085 1
  2895 1095 1086 1
  2896 1120 1101 1
  2897 1121 1101 1
  2898 1122 1102 1
  2899 1123 1104 1
  2900 1124 1106 1
  2901 1125 1108 1
  2902 1126 1110 1
  2903 1127 1115 1
  2904 1154 1135 1
  2905 1155 1135 1
  2906 1156 1136 1
  2907 1157 1138 1
  2908 1158 1140 1
  2909 1159 1142 1
  2910 1160 1144 1
  2911 1161 1149 1
  2912 1185 1169 1
  2913 1186 1169 1
  2914 1187 1170 1
  2915 1188 1172 1
  2916 1189 1174 1
  2917 1190 1176 1
  2918 1191 1180 1
  2919 1192 1183 1
  2920 1193 1184 1
  2921 1217 1199 1
  2922 1218 1199 1
  2923 1219 1200 1
  2924 1220 1202 1
  2925 1221 1204 1
  2926 1222 1206 1
  2927 1223 1208 1
  2928 1224 1214 1
  2929 1248 1232 1
  2930 1249 1232 1
  2931 1250 1233 1
  2932 1251 1235 1
  2933 1252 1237 1
  2934 1253 1239 1
  2935 1254 1243 1
  2936 1255 1246 1
  2937 1256 1247 1
  2938 1280 1262 1
  2939 1281 1262 1
  2940 1282 1263 1
  2941 1283 1265 1
  2942 1284 1267 1
  2943 1285 1269 1
  2944 1286 1271 1
  2945 1287 1277 1
  2946 1314 1295 1
  2947 1315 1295 1
  2948 1316 1296 1
  2949 1317 1298 1
  2950 1318 1300 1
  2951 1319 1302 1
  2952 1320 1304 1
  2953 1321 1309 1
  2954 1345 1329 1
  2955 1346 1329 1
  2956 1347 1330 1
  2957 1348 1332 1
  2958 1349 1334 1
  2959 1350 1336 1
  2960 1351 1340 1
  2961 1352 1343 1
  2962 1353 1344 1
  2963 1375 1359 1
  2964 1376 1359 1
  2965 1377 1360 1
  2966 1378 1362 1
  2967 1379 1364 1
  2968 1380 1366 1
  2969 1381 1373 1
  2970 1382 1374 1
  2971 1406 1390 1
  2972 1407 1390 1
  2973 1408 1391 1
  2974 1409 1393 1
  2975 1410 1395 1
  2976 1411 1397 1
  2977 1412 1404 1
  2978 1413 1405 1
  2979 1439 1421 1
  2980 1440 1421 1
  2981 1441 1422 1
  2982 1442 1424 1
  2983 1443 1426 1
  2984 1444 1428 1
  2985 1445 1430 1
  2986 1446 1436 1
  2987 1470 1454 1
  2988 1471 1454 1
  2989 1472 1455 1
  2990 1473 1457 1
  2991 1474 1459 1
  2992 1475 1461 1
  2993 1476 1468 1
  2994 1477 1469 1
  2995 1504 1485 1
  2996 1505 1485 1
  2997 1506 1486 1
  2998 1507 1488 1
  2999 1508 1490 1
  3000 1509 1492 1
  3001 1510 1494 1
  3002 1511 1499 1
  3003 1537 1519 1
  3004 1538 1519 1
  3005 1539 1520 1
  3006 1540 1522 1
  3007 1541 1524 1
  3008 1542 1526 1
  3009 1543 1528 1
  3010 1544 1534 1
  3011 1570 1552 1
  3012 1571 1552 1
  3013 1572 1553 1
  3014 1573 1555 1
  3015 1574 1557 1
  3016 1575 1559 1
  3017 1576 1561 1
  3018 1577 1567 1
  3019 1603 1585 1
  3020 1604 1585 1
  3021 1605 1586 1
  3022 1606 1588 1
  3023 1607 1590 1
  3024 1608 1592 1
  3025 1609 1594 1
  3026 1610 1600 1
  3027 1637 1618 1
  3028 1638 1618 1
  3029 1639 1619 1
  3030 1640 1621 1
  3031 1641 1623 1
  3032 1642 1625 1
  3033 1643 1627 1
  3034 1644 1632 1
  3035 1668 1652 1
  3036 1669 1652 1
  3037 1670 1653 1
  3038 1671 1655 1
  3039 1672 1657 1
  3040 1673 1659 1
  3041 1674 1666 1
  3042 1675 1667 1
  3043 1699 1683 1
  3044 1700 1683 1
  3045 1701 1684 1
  3046 1702 1686 1
  3047 1703 1688 1
  3048 1704 1690 1
  3049 1705 1694 1
  3050 1706 1697 1
  3051 1707 1698 1
  3052 1734 1715 1
  3053 1735 1715 1
  3054 1736 1716 1
  3055 1737 1718 1
  3056 1738 1720 1
  3057 1739 1722 1
  3058 1740 1724 1
  3059 1741 1729 1
  3060 1766 1750 1
  3061 1767 1750 1
  3062 1768 1751 1
  3063 1769 1753 1
  3064 1770 1755 1
  3065 1771 1757 1
  3066 1772 1764 1
  3067 1773 1765 1
  3068 1797 1781 1
  3069 1798 1781 1
  3070 1799 1782 1
  3071 1800 1784 1
  3072 1801 1786 1
  3073 1802 1788 1
  3074 1803 1792 1
  3075 1804 1795 1
  3076 1805 1796 1
  3077 1827 1811 1
  3078 1828 1811 1
  3079 1829 1812 1
  3080 1830 1814 1
  3081 1831 1816 1
  3082 1832 1818 1
  3083 1833 1822 1
  3084 1834 1825 1
  3085 1835 1826 1
  3086 1857 1841 1
  3087 1858 1841 1
  3088 1859 1842 1
  3089 1860 1844 1
  3090 1861 1846 1
  3091 1862 1848 1
  3092 1863 1852 1
  3093 1864 1855 1
  3094 1865 1856 1
  3095 1890 1871 1
  3096 1891 1871 1
  3097 1892 1872 1
  3098 1893 1874 1
  3099 1894 1876 1
  3100 1895 1878 1
  3101 1896 1880 1
  3102 1897 1885 1
  3103 1923 1905 1
  3104 1924 1905 1
  3105 1925 1906 1
  3106 1926 1908 1
  3107 1927 1910 1
  3108 1928 1912 1
  3109 1929 1914 1
  3110 1930 1920 1
  3111 1954 1938 1
  3112 1955 1938 1
  3113 1956 1939 1
  3114 1957 1941 1
  3115 1958 1943 1
  3116 1959 1945 1
  3117 1960 1949 1
  3118 1961 1952 1
  3119 1962 1953 1
  3120 1984 1968 1
  3121 1985 1968 1
  3122 1986 1969 1
  3123 1987 1971 1
  3124 1988 1973 1
  3125 1989 1975 1
  3126 1990 1979 1
  3127 1991 1982 1
  3128 1992 1983 1
  3129 2014 1998 1
  3130 2015 1998 1
  3131 2016 1999 1
  3132 2017 2001 1
  3133 2018 2003 1
  3134 2019 2005 1
  3135 2020 2009 1
  3136 2021 2012 1
  3137 2022 2013 1
  3138 2047 2028 1
  3139 2048 2028 1
  3140 2049 2029 1
  3141 2050 2031 1
  3142 2051 2033 1
  3143 2052 2035 1
  3144 2053 2037 1
  3145 2054 2042 1
  3146 2081 2062 1
  3147 2082 2062 1
  3148 2083 2063 1
  3149 2084 2065 1
  3150 2085 2067 1
  3151 2086 2069 1
  3152 2087 2071 1
  3153 2088 2076 1
  3154 2112 2096 1
  3155 2113 2096 1
  3156 2114 2097 1
  3157 2115 2099 1
  3158 2116 2101 1
  3159 2117 2103 1
  3160 2118 2107 1
  3161 2119 2110 1
  3162 2120 2111 1
  3163 2145 2126 1
  3164 2146 2126 1
  3165 2147 2127 1
  3166 2148 2129 1
  3167 2149 2131 1
  3168 2150 2133 1
  3169 2151 2135 1
  3170 2152 2140 1
  3171 2178 2160 1
  3172 2179 2160 1
  3173 2180 2161 1
  3174 2181 2163 1
  3175 2182 2165 1
  3176 2183 2167 1
  3177 2184 2169 1
  3178 2185 2175 1
  3179 2211 2193 1
  3180 2212 2193 1
  3181 2213 2194 1
  3182 2214 2196 1
  3183 2215 2198 1
  3184 2216 2200 1
  3185 2217 2202 1
  3186 2218 2208 1
  3187 2244 2226 1
  3188 2245 2226 1
  3189 2246 2227 1
  3190 2247 2229 1
  3191 2248 2231 1
  3192 2249 2233 1
  3193 2250 2235 1
  3194 2251 2241 1
  3195 2275 2259 1
  3196 2276 2259 1
  3197 2277 2260 1
  3198 2278 2262 1
  3199 2279 2264 1
  3200 2280 2266 1
  3201 2281 2270 1
  3202 2282 2273 1
  3203 2283 2274 1
  3204 2305 2289 1
  3205 2306 2289 1
  3206 2307 2290 1
  3207 2308 2292 1
  3208 2309 2294 1
  3209 2310 2296 1
  3210 2311 2300 1
  3211 2312 2303 1
  3212 2313 2304 1
  3213 2335 2319 1
  3214 2336 2319 1
  3215 2337 2320 1
  3216 2338 2322 1
  3217 2339 2324 1
  3218 2340 2326 1
  3219 2341 2333 1
  3220 2342 2334 1
  3221 2366 2350 1
  3222 2367 2350 1
  3223 2368 2351 1
  3224 2369 2353 1
  3225 2370 2355 1
  3226 2371 2357 1
  3227 2372 2364 1
  3228 2373 2365 1
  3229 2399 2381 1
  3230 2400 2381 1
  3231 2401 2382 1
  3232 2402 2384 1
  3233 2403 2386 1
  3234 2404 2388 1
  3235 2405 2390 1
  3236 2406 2396 1
  3237 2432 2414 1
  3238 2433 2414 1
  3239 2434 2415 1
  3240 2435 2417 1
  3241 2436 2419 1
  3242 2437 2421 1
  3243 2438 2423 1
  3244 2439 2429 1
  3245 2465 2447 1
  3246 2466 2447 1
  3247 2467 2448 1
  3248 2468 2450 1
  3249 2469 2452 1
  3250 2470 2454 1
  3251 2471 2456 1
  3252 2472 2462 1
  3253 2498 2480 1
  3254 2499 2480 1
  3255 2500 2481 1
  3256 2501 2483 1
  3257 2502 2485 1
  3258 2503 2487 1
  3259 2504 2489 1
  3260 2505 2495 1
  3261 2529 2513 1
  3262 2530 2513 1
  3263 2531 2514 1
  3264 2532 2516 1
  3265 2533 2518 1
  3266 2534 2520 1
  3267 2535 2527 1
  3268 2536 2528 1
  3269 2560 2544 1
  3270 2561 2544 1
  3271 2562 2545 1
  3272 2563 2547 1
  3273 2564 2549 1
  3274 2565 2551 1
  3275 2566 2558 1
  3276 2567 2559 1
  3277 2594 2575 1
  3278 2595 2575 1
  3279 2596 2576 1
  3280 2597 2578 1
  3281 2598 2580 1
  3282 2599 2582 1
  3283 2600 2584 1
  3284 2601 2589 1
  3285 2627 2609 1
  3286 2628 2609 1
  3287 2629 2610 1
  3288 2630 2612 1
  3289 2631 2614 1
  3290 2632 2616 1
  3291 2633 2618 1
  3292 2634 2624 1
  3293 2658 2642 1
  3294 2659 2642 1
  3295 2660 2643 1
  3296 2661 2645 1
  3297 2662 2647 1
  3298 2663 2649 1
  3299 2664 2656 1
  3300 2665 2657 1
  3301 2691 2673 1
  3302 2692 2673 1
  3303 2693 2674 1
  3304 2694 2676 1
  3305 2695 2678 1
  3306 2696 2680 1
  3307 2697 2682 1
  3308 2698 2688 1
  3309 2725 2706 1
  3310 2726 2706 1
  3311 2727 2707 1
  3312 2728 2709 1
  3313 2729 2711 1
  3314 2730 2713 1
  3315 2731 2715 1
  3316 2732 2720 1
  3317 2756 2740 1
  3318 2757 2740 1
  3319 2758 2741 1
  3320 2759 2743 1
  3321 2760 2745 1
  3322 2761 2747 1
  3323 2762 2751 1
  3324 2763 2754 1
  3325 2764 2755 1
  3326 2788 2770 1
  3327 2789 2770 1
  3328 2790 2771 1
  3329 2791 2773 1
  3330 2792 2775 1
  3331 2793 2777 1
  3332 2794 2779 1
  3333 2795 2785 1
  3334 2822 2803 1
  3335 2823 2803 1
  3336 2824 2804 1
  3337 2825 2806 1
  3338 2826 2808 1
  3339 2827 2810 1
  3340 2828 2812 1
  3341 2829 2817 1
  3342 2855 2837 1
  3343 2856 2837 1
  3344 2857 2838 1
  3345 2858 2840 1
  3346 2859 2842 1
  3347 2860 2844 1
  3348 2861 2846 1
  3349 2862 2852 1
  3350 2889 2870 1
  3351 2890 2870 1
  3352 2891 2871 1
  3353 2892 2873 1
  3354 2893 2875 1
  3355 2894 2877 1
  3356 2895 2879 1
  3357 2896 2884 1
  3358 2920 2904 1
  3359 2921 2904 1
  3360 2922 2905 1
  3361 2923 2907 1
  3362 2924 2909 1
  3363 2925 2911 1
  3364 2926 2915 1
  3365 2927 2918 1
  3366 2928 2919 1
  3367 2950 2934 1
  3368 2951 2934 1
  3369 2952 2935 1
  3370 2953 2937 1
  3371 2954 2939 1
  3372 2955 2941 1
  3373 2956 2948 1
  3374 2957 2949 1
  3375 2981 2965 1
  3376 2982 2965 1
  3377 2983 2966 1
  3378 2984 2968 1
  3379 2985 2970 1
  3380 2986 2972 1
  3381 2987 2976 1
  3382 2988 2979 1
  3383 2989 2980 1
  3384 3014 2995 1
  3385 3015 2995 1
  3386 3016 2996 1
  3387 3017 2998 1
  3388 3018 3000 1
  3389 3019 3002 1
  3390 3020 3004 1
  3391 3021 3009 1
  3392 3048 3029 1
  3393 3049 3029 1
  3394 3050 3030 1
  3395 3051 3032 1
  3396 3052 3034 1
  3397 3053 3036 1
  3398 3054 3038 1
  3399 3055 3043 1
  3400 3081 3063 1
  3401 3082 3063 1
  3402 3083 3064 1
  3403 3084 3066 1
  3404 3085 3068 1
  3405 3086 3070 1
  3406 3087 3072 1
  3407 3088 3078 1
  3408 3112 3096 1
  3409 3113 3096 1
  3410 3114 3097 1
  3411 3115 3099 1
  3412 3116 3101 1
  3413 3117 3103 1
  3414 3118 3107 1
  3415 3119 3110 1
  3416 3120 3111 1
  3417 3145 3126 1
  3418 3146 3126 1
  3419 3147 3127 1
  3420 3148 3129 1
  3421 3149 3131 1
  3422 3150 3133 1
  3423 3151 3135 1
  3424 3152 3140 1
  3425 3178 3160 1
  3426 3179 3160 1
  3427 3180 3161 1
  3428 3181 3163 1
  3429 3182 3165 1
  3430 3183 3167 1
  3431 3184 3169 1
  3432 3185 3175 1
  3433 3212 3193 1
  3434 3213 3193 1
  3435 3214 3194 1
  3436 3215 3196 1
  3437 3216 3198 1
  3438 3217 3200 1
  3439 3218 3202 1
  3440 3219 3207 1
  3441 3245 3227 1
  3442 3246 3227 1
  3443 3247 3228 1
  3444 3248 3230 1
  3445 3249 3232 1
  3446 3250 3234 1
  3447 3251 3236 1
  3448 3252 3242 1
  3449 3279 3260 1
  3450 3280 3260 1
  3451 3281 3261 1
  3452 3282 3263 1
  3453 3283 3265 1
  3454 3284 3267 1
  3455 3285 3269 1
  3456 3286 3274 1
  3457 3312 3294 1
  3458 3313 3294 1
  3459 3314 3295 1
  3460 3315 3297 1
  3461 3316 3299 1
  3462 3317 3301 1
  3463 3318 3303 1
  3464 3319 3309 1
  3465 3345 3327 1
  3466 3346 3327 1
  3467 3347 3328 1
  3468 3348 3330 1
  3469 3349 3332 1
  3470 3350 3334 1
  3471 3351 3336 1
  3472 3352 3342 1
  3473 3379 3360 1
  3474 3380 3360 1
  3475 3381 3361 1
  3476 3382 3363 1
  3477 3383 3365 1
  3478 3384 3367 1
  3479 3385 3369 1
  3480 3386 3374 1
  3481 3412 3394 1
  3482 3413 3394 1
  3483 3414 3395 1
  3484 3415 3397 1
  3485 3416 3399 1
  3486 3417 3401 1
  3487 3418 3403 1
  3488 3419 3409 1
  3489 3443 3427 1
  3490 3444 3427 1
  3491 3445 3428 1
  3492 3446 3430 1
  3493 3447 3432 1
  3494 3448 3434 1
  3495 3449 3438 1
  3496 3450 3441 1
  3497 3451 3442 1
  3498 3473 3457 1
  3499 3474 3457 1
  3500 3475 3458 1
  3501 3476 3460 1
  3502 3477 3462 1
  3503 3478 3464 1
  3504 3479 3468 1
  3505 3480 3471 1
  3506 3481 3472 1
  3507 3503 3487 1
  3508 3504 3487 1
  3509 3505 3488 1
  3510 3506 3490 1
  3511 3507 3492 1
  3512 3508 3494 1
  3513 3509 3501 1
  3514 3510 3502 1
  3515   29   18 1
  3516   30   18 1
  3517   64   53 1
  3518   65   53 1
  3519  158  147 1
  3520  159  147 1
  3521  249  238 1
  3522  250  238 1
  3523  283  272 1
  3524  284  272 1
  3525  317  306 1
  3526  318  306 1
  3527  351  340 1
  3528  352  340 1
  3529  385  374 1
  3530  386  374 1
  3531  416  405 1
  3532  417  405 1
  3533  483  472 1
  3534  484  472 1
  3535  517  506 1
  3536  518  506 1
  3537  551  540 1
  3538  552  540 1
  3539  615  604 1
  3540  616  604 1
  3541  805  794 1
  3542  806  794 1
  3543  836  825 1
  3544  837  825 1
  3545  867  856 1
  3546  868  856 1
  3547  901  890 1
  3548  902  890 1
  3549  965  954 1
  3550  966  954 1
  3551  996  985 1
  3552  997  985 1
  3553 1030 1019 1
  3554 1031 1019 1
  3555 1064 1053 1
  3556 1065 1053 1
  3557 1128 1117 1
  3558 1129 1117 1
  3559 1162 1151 1
  3560 1163 1151 1
  3561 1322 1311 1
  3562 1323 1311 1
  3563 1383 1372 1
  3564 1384 1372 1
  3565 1414 1403 1
  3566 1415 1403 1
  3567 1478 1467 1
  3568 1479 1467 1
  3569 1512 1501 1
  3570 1513 1501 1
  3571 1645 1634 1
  3572 1646 1634 1
  3573 1676 1665 1
  3574 1677 1665 1
  3575 1742 1731 1
  3576 1743 1731 1
  3577 1774 1763 1
  3578 1775 1763 1
  3579 1898 1887 1
  3580 1899 1887 1
  3581 2055 2044 1
  3582 2056 2044 1
  3583 2089 2078 1
  3584 2090 2078 1
  3585 2153 2142 1
  3586 2154 2142 1
  3587 2343 2332 1
  3588 2344 2332 1
  3589 2374 2363 1
  3590 2375 2363 1
  3591 2537 2526 1
  3592 2538 2526 1
  3593 2568 2557 1
  3594 2569 2557 1
  3595 2602 2591 1
  3596 2603 2591 1
  3597 2666 2655 1
  3598 2667 2655 1
  3599 2733 2722 1
  3600 2734 2722 1
  3601 2830 2819 1
  3602 2831 2819 1
  3603 2897 2886 1
  3604 2898 2886 1
  3605 2958 2947 1
  3606 2959 2947 1
  3607 3022 3011 1
  3608 3023 3011 1
  3609 3056 3045 1
  3610 3057 3045 1
  3611 3153 3142 1
  3612 3154 3142 1
  3613 3220 3209 1
  3614 3221 3209 1
  3615 3287 3276 1
  3616 3288 3276 1
  3617 3387 3376 1
  3618 3388 3376 1
  3619 3511 3500 1
  3620 3512 3500 1
  3621 2863 2843 1
  3622 1288 1268 1
  3623 1963 1944 1
  3624 2252 2232 1
  3625  714  694 1
  3626  319  296 1
  3627 1931 1911 1
  3628 1324 1301 1
  3629 1066 1043 1
  3630 2570 2550 1
  3631 1900 1877 1
  3632  617  594 1
  3633 3089 3069 1
  3634 2539 2519 1
  3635 3222 3199 1
  3636  998  978 1
  3637  353  330 1
  3638 2765 2746 1
  3639 2440 2420 1
  3640 3513 3493 1
  3641 2155 2132 1
  3642 3353 3333 1
  3643  190  171 1
  3644 2186 2166 1
  3645 3482 3463 1
  3646 3253 3233 1
  3647 1032 1009 1
  3648 2796 2776 1
  3649 3024 3001 1
  3650  648  628 1
  3651 2023 2004 1
  3652 3420 3400 1
  3653 3452 3433 1
  3654 1611 1591 1
  3655 1194 1175 1
  3656 3389 3366 1
  3657  220  201 1
  3658  418  398 1
  3659 3320 3300 1
  3660 1678 1658 1
  3661 1647 1624 1
  3662 1096 1077 1
  3663 3289 3266 1
  3664 2284 2265 1
  3665  160  140 1
  3666 1164 1141 1
  3667 2407 2387 1
  3668  967  947 1
  3669 2314 2295 1
  3670 2832 2809 1
  3671  681  668 1
  3672  682  668 1
  3673 3186 3173 1
  3674 3187 3173 1
  3675 1447 1434 1
  3676 1448 1434 1
  3677 3421 3407 1
  3678 3422 3407 1
  3679 1225 1212 1
  3680 1226 1212 1
  3681 2797 2783 1
  3682 2798 2783 1
  3683 2864 2850 1
  3684 2865 2850 1
  3685 2441 2427 1
  3686 2442 2427 1
  3687 1612 1598 1
  3688 1613 1598 1
  3689 3354 3340 1
  3690 3355 3340 1
  3691 3090 3076 1
  3692 3091 3076 1
  3693 2219 2206 1
  3694 2220 2206 1
  3695  934  921 1
  3696  935  921 1
  3697 2506 2493 1
  3698 2507 2493 1
  3699 1545 1532 1
  3700 1546 1532 1
  3701  715  701 1
  3702  716  701 1
  3703 2408 2394 1
  3704 2409 2394 1
  3705 1932 1918 1
  3706 1933 1918 1
  3707   97   84 1
  3708   98   84 1
  3709 2699 2686 1
  3710 2700 2686 1
  3711  649  635 1
  3712  650  635 1
  3713 2473 2460 1
  3714 2474 2460 1
  3715 2253 2239 1
  3716 2254 2239 1
  3717 2635 2622 1
  3718 2636 2622 1
  3719 1578 1565 1
  3720 1579 1565 1
  3721 3321 3307 1
  3722 3322 3307 1
  3723 2187 2173 1
  3724 2188 2173 1
  3725  449  436 1
  3726  450  436 1
  3727 3254 3240 1
  3728 3255 3240 1
  3729 1289 1275 1
  3730 1290 1275 1
  3731 1547 1525 1
  3732  776  757 1
  3733 1257 1238 1
  3734  387  364 1
  3735  285  262 1
  3736  903  880 1
  3737 1385 1365 1
  3738 3514 3491 1
  3739 2899 2876 1
  3740   31    1 1
  3741 2475 2453 1
  3742 2929 2910 1
  3743 1416 1396 1
  3744 1514 1491 1
  3745   32    8 1
  3746 2960 2940 1
  3747  683  661 1
  3748 1449 1427 1
  3749 3058 3035 1
  3750  583  564 1
  3751 1744 1721 1
  3752 1993 1974 1
  3753 2221 2199 1
  3754 1776 1756 1
  3755 2990 2971 1
  3756 1480 1460 1
  3757 2508 2486 1
  3758 2604 2581 1
  3759 1227 1205 1
  3760 1836 1817 1
  3761  936  914 1
  3762  485  462 1
  3763 2668 2648 1
  3764 1354 1335 1
  3765 1708 1689 1
  3766   99   77 1
  3767 1866 1847 1
  3768  807  787 1
  3769 1713 1712 1
  3770 1580 1558 1
  3771  519  496 1
  3772 1130 1107 1
  3773 2345 2325 1
  3774 2057 2034 1
  3775 3121 3102 1
  3776  553  530 1
  3777 2121 2102 1
  3778  251  231 1
  3779 2376 2356 1
  3780   66   43 1
  3781  869  849 1
  3782 2091 2068 1
  3783 3155 3132 1
  3784 1806 1787 1
  3785 2637 2615 1
  3786  746  727 1
  3787  451  429 1
  3788  129  110 1
  3789 2701 2679 1
  3790 2735 2712 1
  3791 3188 3166 1
  3792  838  818 1
  3793 1745 1714 1
@<TRIPOS>SUBSTRUCTURE
     1   G1        3 RESIDUE           4 X       G     1 ROOT
     2   G2       38 RESIDUE           4 X       G     2
     3   A3       72 RESIDUE           4 X       A     2
     4   U4      105 RESIDUE           4 X       U     2
     5   C5      135 RESIDUE           4 X       C     2
     6   U6      166 RESIDUE           4 X       U     2
     7   U7      196 RESIDUE           4 X       U     2
     8   C8      226 RESIDUE           4 X       C     2
     9   G9      257 RESIDUE           4 X       G     2
    10   G10     291 RESIDUE           4 X       G     2
    11   G11     325 RESIDUE           4 X       G     2
    12   G12     359 RESIDUE           4 X       G     2
    13   C13     393 RESIDUE           4 X       C     2
    14   A14     424 RESIDUE           4 X       A     2
    15   G15     457 RESIDUE           4 X       G     2
    16   G16     491 RESIDUE           4 X       G     2
    17   G17     525 RESIDUE           4 X       G     2
    18   U18     559 RESIDUE           4 X       U     2
    19   G19     589 RESIDUE           4 X       G     2
    20   A20     623 RESIDUE           4 X       A     2
    21   A21     656 RESIDUE           4 X       A     2
    22   A22     689 RESIDUE           4 X       A     2
    23   U23     722 RESIDUE           4 X       U     2
    24   U24     752 RESIDUE           4 X       U     2
    25   C25     782 RESIDUE           4 X       C     2
    26   C26     813 RESIDUE           4 X       C     2
    27   C27     844 RESIDUE           4 X       C     2
    28   G28     875 RESIDUE           4 X       G     2
    29   A29     909 RESIDUE           4 X       A     2
    30   C30     942 RESIDUE           4 X       C     2
    31   C31     973 RESIDUE           4 X       C     2
    32   G32    1004 RESIDUE           4 X       G     2
    33   G33    1038 RESIDUE           4 X       G     2
    34   U34    1072 RESIDUE           4 X       U     2
    35   G35    1102 RESIDUE           4 X       G     2
    36   G36    1136 RESIDUE           4 X       G     2
    37   U37    1170 RESIDUE           4 X       U     2
    38   A38    1200 RESIDUE           4 X       A     2
    39   U39    1233 RESIDUE           4 X       U     2
    40   A40    1263 RESIDUE           4 X       A     2
    41   G41    1296 RESIDUE           4 X       G     2
    42   U42    1330 RESIDUE           4 X       U     2
    43   C43    1360 RESIDUE           4 X       C     2
    44   C44    1391 RESIDUE           4 X       C     2
    45   A45    1422 RESIDUE           4 X       A     2
    46   C46    1455 RESIDUE           4 X       C     2
    47   G47    1486 RESIDUE           4 X       G     2
    48   A48    1520 RESIDUE           4 X       A     2
    49   A49    1553 RESIDUE           4 X       A     2
    50   A50    1586 RESIDUE           4 X       A     2
    51   G51    1619 RESIDUE           4 X       G     2
    52   C52    1653 RESIDUE           4 X       C     2
    53   U53    1684 RESIDUE           4 X       U     2
    54   U54    1709 RESIDUE           4 X       U     1
    55   G57    1716 RESIDUE           4 Y       G     1 ROOT
    56   C58    1751 RESIDUE           4 Y       C     2
    57   U59    1782 RESIDUE           4 Y       U     2
    58   U60    1812 RESIDUE           4 Y       U     2
    59   U61    1842 RESIDUE           4 Y       U     2
    60   G62    1872 RESIDUE           4 Y       G     2
    61   A63    1906 RESIDUE           4 Y       A     2
    62   U64    1939 RESIDUE           4 Y       U     2
    63   U65    1969 RESIDUE           4 Y       U     2
    64   U66    1999 RESIDUE           4 Y       U     2
    65   G67    2029 RESIDUE           4 Y       G     2
    66   G68    2063 RESIDUE           4 Y       G     2
    67   U69    2097 RESIDUE           4 Y       U     2
    68   G70    2127 RESIDUE           4 Y       G     2
    69   A71    2161 RESIDUE           4 Y       A     2
    70   A72    2194 RESIDUE           4 Y       A     2
    71   A73    2227 RESIDUE           4 Y       A     2
    72   U74    2260 RESIDUE           4 Y       U     2
    73   U75    2290 RESIDUE           4 Y       U     2
    74   C76    2320 RESIDUE           4 Y       C     2
    75   C77    2351 RESIDUE           4 Y       C     2
    76   A78    2382 RESIDUE           4 Y       A     2
    77   A79    2415 RESIDUE           4 Y       A     2
    78   A80    2448 RESIDUE           4 Y       A     2
    79   A81    2481 RESIDUE           4 Y       A     2
    80   C82    2514 RESIDUE           4 Y       C     2
    81   C83    2545 RESIDUE           4 Y       C     2
    82   G84    2576 RESIDUE           4 Y       G     2
    83   A85    2610 RESIDUE           4 Y       A     2
    84   C86    2643 RESIDUE           4 Y       C     2
    85   A87    2674 RESIDUE           4 Y       A     2
    86   G88    2707 RESIDUE           4 Y       G     2
    87   U89    2741 RESIDUE           4 Y       U     2
    88   A90    2771 RESIDUE           4 Y       A     2
    89   G91    2804 RESIDUE           4 Y       G     2
    90   A92    2838 RESIDUE           4 Y       A     2
    91   G93    2871 RESIDUE           4 Y       G     2
    92   U94    2905 RESIDUE           4 Y       U     2
    93   C95    2935 RESIDUE           4 Y       C     2
    94   U96    2966 RESIDUE           4 Y       U     2
    95   G97    2996 RESIDUE           4 Y       G     2
    96   G98    3030 RESIDUE           4 Y       G     2
    97   A99    3064 RESIDUE           4 Y       A     2
    98   U100   3097 RESIDUE           4 Y       U     2
    99   G101   3127 RESIDUE           4 Y       G     2
   100   A102   3161 RESIDUE           4 Y       A     2
   101   G103   3194 RESIDUE           4 Y       G     2
   102   A104   3228 RESIDUE           4 Y       A     2
   103   G105   3261 RESIDUE           4 Y       G     2
   104   A106   3295 RESIDUE           4 Y       A     2
   105   A107   3328 RESIDUE           4 Y       A     2
   106   G108   3361 RESIDUE           4 Y       G     2
   107   A109   3395 RESIDUE           4 Y       A     2
   108   U110   3428 RESIDUE           4 Y       U     2
   109   U111   3458 RESIDUE           4 Y       U     2
   110   C112   3488 RESIDUE           4 Y       C     1
