@<TRIPOS>MOLECULE
2XNW.pdb
2052 2212 65 0 0
NUCLEIC_ACID
AMBER ff14SB


@<TRIPOS>ATOM
      1 O5'         6.3020  -13.7940   20.3220 O.3       1   G16      -0.6223
      2 C5'         6.4700  -15.0430   20.9840 C.3       1   G16       0.0558
      3 C4'         5.7960  -16.1700   20.2220 C.3       1   G16       0.1065
      4 O4'         4.3730  -15.9280   20.1100 O.3       1   G16      -0.3548
      5 C3'         6.2140  -16.3420   18.7710 C.3       1   G16       0.2022
      6 O3'         7.4790  -16.9840   18.6860 O.3       1   G16      -0.5246
      7 C2'         5.0790  -17.2130   18.2410 C.3       1   G16       0.0670
      8 O2'         5.2350  -18.5870   18.5510 O.3       1   G16      -0.6139
      9 C1'         3.8760  -16.6350   18.9860 C.3       1   G16       0.0191
     10 N9          3.0500  -15.7370   18.1780 N.ar      1   G16       0.0492
     11 C8          2.9820  -14.3680   18.2780 C.ar      1   G16       0.1374
     12 N7          2.1540  -13.8260   17.4320 N.ar      1   G16      -0.5709
     13 C5          1.6330  -14.9010   16.7220 C.ar      1   G16       0.1744
     14 C6          0.6810  -14.9320   15.6680 C.2       1   G16       0.4770
     15 O6          0.0940  -13.9810   15.1350 O.2       1   G16      -0.5597
     16 N1          0.4280  -16.2300   15.2240 N.am      1   G16      -0.4787
     17 C2          1.0210  -17.3630   15.7370 C.2       1   G16       0.7657
     18 N2          0.6540  -18.5310   15.1870 N.pl3     1   G16      -0.9672
     19 N3          1.9150  -17.3460   16.7230 N.2       1   G16      -0.6323
     20 C4          2.1740  -16.0880   17.1700 C.ar      1   G16       0.1222
     21 H5'         7.5351  -15.2592   21.0677 H         1   G16       0.0679
     22 H5''        6.0387  -14.9789   21.9830 H         1   G16       0.0679
     23 H4'         5.9580  -17.1076   20.7538 H         1   G16       0.1174
     24 H3'         6.2341  -15.3802   18.2585 H         1   G16       0.0615
     25 H2'         4.9634  -17.0756   17.1659 H         1   G16       0.0972
     26 H1'         3.2548  -17.4585   19.3382 H         1   G16       0.2006
     27 H8          3.5597  -13.7969   18.9897 H         1   G16       0.1640
     28 H1         -0.2371  -16.3476   14.4731 H         1   G16       0.3424
     29 H21        -0.0239  -18.5458   14.4384 H         1   G16       0.4364
     30 H22         1.0557  -19.3951   15.5217 H         1   G16       0.4364
     31 HO2'        5.4428  -19.0745   17.7505 H         1   G16       0.4186
     32 HO5'        6.4329  -12.9734   20.8028 H         1   G16       0.4295
     33 P           8.4600  -16.6450   17.4680 P.3       2   A17       1.1662
     34 OP1         9.7800  -17.2400   17.7790 O.co2     2   A17      -0.7760
     35 OP2         8.3360  -15.1990   17.1690 O.co2     2   A17      -0.7760
     36 O5'         7.8240  -17.4510   16.2440 O.3       2   A17      -0.4989
     37 C5'         7.9140  -18.8780   16.2030 C.3       2   A17       0.0558
     38 C4'         7.1280  -19.4440   15.0320 C.3       2   A17       0.1065
     39 O4'         5.7160  -19.1600   15.2050 O.3       2   A17      -0.3548
     40 C3'         7.4640  -18.8490   13.6720 C.3       2   A17       0.2022
     41 O3'         8.6230  -19.4650   13.1110 O.3       2   A17      -0.5246
     42 C2'         6.1860  -19.1480   12.8930 C.3       2   A17       0.0670
     43 O2'         6.1040  -20.4930   12.4590 O.3       2   A17      -0.6139
     44 C1'         5.1230  -18.8630   13.9510 C.3       2   A17       0.0394
     45 N9          4.6220  -17.4820   13.9580 N.ar      2   A17      -0.0251
     46 C8          5.0600  -16.4350   14.7290 C.ar      2   A17       0.2006
     47 N7          4.4200  -15.3070   14.5240 N.ar      2   A17      -0.6073
     48 C5          3.4940  -15.6300   13.5470 C.ar      2   A17       0.0515
     49 C6          2.5030  -14.8730   12.8850 C.ar      2   A17       0.7009
     50 N6          2.2750  -13.5770   13.1250 N.pl3     2   A17      -0.9019
     51 N1          1.7460  -15.5010   11.9600 N.ar      2   A17      -0.7615
     52 C2          1.9600  -16.8000   11.7140 C.ar      2   A17       0.5875
     53 N3          2.8600  -17.6110   12.2700 N.ar      2   A17      -0.6997
     54 C4          3.6030  -16.9640   13.1860 C.ar      2   A17       0.3053
     55 H5'         8.9604  -19.1655   16.1010 H         2   A17       0.0679
     56 H5''        7.5185  -19.2888   17.1320 H         2   A17       0.0679
     57 H4'         7.2725  -20.5237   14.9943 H         2   A17       0.1174
     58 H3'         7.6118  -17.7724   13.7566 H         2   A17       0.0615
     59 H2'         6.0815  -18.4652   12.0498 H         2   A17       0.0972
     60 H1'         4.2826  -19.5389   13.7930 H         2   A17       0.2007
     61 H8          5.8635  -16.5306   15.4443 H         2   A17       0.1553
     62 H2          1.3204  -17.2487   10.9684 H         2   A17       0.0473
     63 H61         1.4514  -13.1784   12.6973 H         2   A17       0.4115
     64 H62         2.8936  -13.0263   13.7031 H         2   A17       0.4115
     65 HO2'        6.7775  -20.6571   11.7949 H         2   A17       0.4186
     66 P           9.5500  -18.6840   12.0570 P.3       3   C18       1.1662
     67 OP1        10.8440  -19.3990   11.9910 O.co2     3   C18      -0.7760
     68 OP2         9.5010  -17.2240   12.3440 O.co2     3   C18      -0.7760
     69 O5'         8.7860  -18.9520   10.6810 O.3       3   C18      -0.4989
     70 C5'         8.3320  -17.8520    9.9310 C.3       3   C18       0.0558
     71 C4'         7.1430  -18.2290    9.0780 C.3       3   C18       0.1065
     72 O4'         5.9160  -18.0370    9.8210 O.3       3   C18      -0.3548
     73 C3'         7.0120  -17.2820    7.9070 C.3       3   C18       0.2022
     74 O3'         7.8130  -17.7470    6.8350 O.3       3   C18      -0.5246
     75 C2'         5.5040  -17.2310    7.6590 C.3       3   C18       0.0670
     76 O2'         4.9660  -18.3580    6.9970 O.3       3   C18      -0.6139
     77 C1'         5.0090  -17.2110    9.1000 C.3       3   C18       0.0066
     78 N1          4.9000  -15.8270    9.7320 N.am      3   C18      -0.0484
     79 C2          3.8170  -14.9840    9.4080 C.2       3   C18       0.7538
     80 O2          2.9530  -15.3650    8.6060 O.2       3   C18      -0.6252
     81 N3          3.7380  -13.7570    9.9920 N.2       3   C18      -0.7584
     82 C4          4.6750  -13.3480   10.8530 C.2       3   C18       0.8185
     83 N4          4.5410  -12.1350   11.3920 N.pl3     3   C18      -0.9530
     84 C5          5.7790  -14.1770   11.2010 C.2       3   C18      -0.5215
     85 C6          5.8450  -15.3850   10.6260 C.2       3   C18       0.0053
     86 H5'         8.0420  -17.0521   10.6123 H         3   C18       0.0679
     87 H5''        9.1379  -17.4999    9.2871 H         3   C18       0.0679
     88 H4'         7.2274  -19.2595    8.7329 H         3   C18       0.1174
     89 H3'         7.3577  -16.2930    8.2077 H         3   C18       0.0615
     90 H2'         5.2281  -16.3115    7.1428 H         3   C18       0.0972
     91 H1'         4.0246  -17.6782    9.1293 H         3   C18       0.2029
     92 H5          6.5325  -13.8454   11.9001 H         3   C18       0.1928
     93 H6          6.6710  -16.0351   10.8741 H         3   C18       0.1958
     94 H41         3.7522  -11.5558   11.1423 H         3   C18       0.4234
     95 H42         5.2284  -11.7959   12.0497 H         3   C18       0.4234
     96 HO2'        5.2757  -18.3741    6.0885 H         3   C18       0.4186
     97 P           8.6840  -16.6820    6.0320 P.3       4   A19       1.1662
     98 OP1         9.5280  -17.3920    5.0490 O.co2     4   A19      -0.7760
     99 OP2         9.3070  -15.7470    6.9990 O.co2     4   A19      -0.7760
    100 O5'         7.5470  -15.8900    5.2440 O.3       4   A19      -0.4989
    101 C5'         6.7710  -16.5490    4.2490 C.3       4   A19       0.0558
    102 C4'         5.6860  -15.6090    3.7680 C.3       4   A19       0.1065
    103 O4'         4.8390  -15.2090    4.8770 O.3       4   A19      -0.3548
    104 C3'         6.2170  -14.2800    3.2490 C.3       4   A19       0.2022
    105 O3'         6.7260  -14.4070    1.9310 O.3       4   A19      -0.5246
    106 C2'         4.9810  -13.3990    3.3410 C.3       4   A19       0.0670
    107 O2'         4.0560  -13.6420    2.2940 O.3       4   A19      -0.6139
    108 C1'         4.4300  -13.8570    4.6920 C.3       4   A19       0.0394
    109 N9          4.8650  -13.0660    5.8500 N.ar      4   A19      -0.0251
    110 C8          5.7960  -13.4170    6.7960 C.ar      4   A19       0.2006
    111 N7          5.9840  -12.5120    7.7330 N.ar      4   A19      -0.6073
    112 C5          5.1080  -11.4940    7.3820 C.ar      4   A19       0.0515
    113 C6          4.8020  -10.2440    7.9670 C.ar      4   A19       0.7009
    114 N6          5.3750   -9.7830    9.0830 N.pl3     4   A19      -0.9019
    115 N1          3.8720   -9.4690    7.3580 N.ar      4   A19      -0.7615
    116 C2          3.2860   -9.9160    6.2370 C.ar      4   A19       0.5875
    117 N3          3.4880  -11.0710    5.6020 N.ar      4   A19      -0.6997
    118 C4          4.4120  -11.8220    6.2270 C.ar      4   A19       0.3053
    119 H5'         6.3169  -17.4444    4.6734 H         4   A19       0.0679
    120 H5''        7.4111  -16.8264    3.4115 H         4   A19       0.0679
    121 H4'         5.0864  -16.0958    2.9988 H         4   A19       0.1174
    122 H3'         6.9939  -13.9033    3.9143 H         4   A19       0.0615
    123 H2'         5.2590  -12.3456    3.3742 H         4   A19       0.0972
    124 H1'         3.3413  -13.8301    4.6465 H         4   A19       0.2007
    125 H8          6.3289  -14.3561    6.7732 H         4   A19       0.1553
    126 H2          2.5569   -9.2554    5.7916 H         4   A19       0.0473
    127 H61         4.7233   -9.0882    9.4187 H         4   A19       0.4115
    128 H62         6.2538  -10.0636    9.4943 H         4   A19       0.4115
    129 HO2'        4.4294  -13.3447    1.4611 H         4   A19       0.4186
    130 P           8.0190  -13.5530    1.5230 P.3       5   U20       1.1662
    131 OP1         8.5040  -14.0190    0.2010 O.co2     5   U20      -0.7760
    132 OP2         8.9580  -13.5050    2.6650 O.co2     5   U20      -0.7760
    133 O5'         7.4170  -12.0870    1.3020 O.3       5   U20      -0.4989
    134 C5'         6.4190  -11.8550    0.3110 C.3       5   U20       0.0558
    135 C4'         5.8400  -10.4670    0.4770 C.3       5   U20       0.1065
    136 O4'         5.1290  -10.3510    1.7320 O.3       5   U20      -0.3548
    137 C3'         6.8680   -9.3540    0.5480 C.3       5   U20       0.2022
    138 O3'         7.2860   -8.9910   -0.7300 O.3       5   U20      -0.5246
    139 C2'         6.0930   -8.2410    1.2350 C.3       5   U20       0.0670
    140 O2'         5.1710   -7.5520    0.4110 O.3       5   U20      -0.6139
    141 C1'         5.3360   -9.0550    2.2740 C.3       5   U20       0.0674
    142 N1          6.0620   -9.0810    3.5930 N.am      5   U20       0.0418
    143 C2          5.9010   -7.9650    4.3950 C.2       5   U20       0.4687
    144 O2          5.2100   -7.0020    4.0790 O.2       5   U20      -0.5477
    145 N3          6.5690   -8.0160    5.5900 N.am      5   U20      -0.3549
    146 C4          7.3650   -9.0430    6.0530 C.2       5   U20       0.5952
    147 O4          7.9010   -8.9200    7.1470 O.2       5   U20      -0.5761
    148 C5          7.4980  -10.1760    5.1590 C.2       5   U20      -0.3635
    149 C6          6.8500  -10.1570    3.9810 C.2       5   U20      -0.1126
    150 H5'         6.8658  -11.9438   -0.6792 H         5   U20       0.0679
    151 H5''        5.6246  -12.5937    0.4173 H         5   U20       0.0679
    152 H4'         5.1516  -10.2662   -0.3439 H         5   U20       0.1174
    153 H3'         7.7195   -9.6586    1.1564 H         5   U20       0.0615
    154 H2'         6.7742   -7.5404    1.7180 H         5   U20       0.0972
    155 H1'         4.3624   -8.5901    2.4291 H         5   U20       0.1824
    156 H3          6.4677   -7.2154    6.1974 H         5   U20       0.3154
    157 H5          8.1086  -11.0230    5.4349 H         5   U20       0.1811
    158 H6          6.9450  -11.0034    3.3169 H         5   U20       0.2188
    159 HO2'        5.6486   -7.0384   -0.2445 H         5   U20       0.4186
    160 P           8.8090   -8.5900   -0.9640 P.3       6   A21       1.1662
    161 OP1         8.9610   -8.2410   -2.3920 O.co2     6   A21      -0.7760
    162 OP2         9.7020   -9.6010   -0.3490 O.co2     6   A21      -0.7760
    163 O5'         8.9640   -7.2610   -0.0920 O.3       6   A21      -0.4989
    164 C5'         8.4070   -6.0490   -0.5870 C.3       6   A21       0.0558
    165 C4'         8.5590   -4.9250    0.4180 C.3       6   A21       0.1065
    166 O4'         7.9170   -5.2760    1.6590 O.3       6   A21      -0.3548
    167 C3'         9.9870   -4.6270    0.8440 C.3       6   A21       0.2022
    168 O3'        10.6510   -3.8790   -0.1620 O.3       6   A21      -0.5246
    169 C2'         9.7150   -3.8090    2.1000 C.3       6   A21       0.0670
    170 O2'         9.4780   -2.4390    1.8290 O.3       6   A21      -0.6139
    171 C1'         8.4750   -4.4890    2.6910 C.3       6   A21       0.0394
    172 N9          8.8720   -5.3170    3.8260 N.ar      6   A21      -0.0251
    173 C8          9.3740   -6.5930    3.8050 C.ar      6   A21       0.2006
    174 N7          9.6690   -7.0610    4.9910 N.ar      6   A21      -0.6073
    175 C5          9.3670   -6.0080    5.8470 C.ar      6   A21       0.0515
    176 C6          9.4770   -5.8360    7.2470 C.ar      6   A21       0.7009
    177 N6          9.9230   -6.7830    8.0640 N.pl3     6   A21      -0.9019
    178 N1          9.1020   -4.6550    7.7880 N.ar      6   A21      -0.7615
    179 C2          8.6450   -3.6820    6.9800 C.ar      6   A21       0.5875
    180 N3          8.5030   -3.7260    5.6460 N.ar      6   A21      -0.6997
    181 C4          8.8820   -4.9230    5.1440 C.ar      6   A21       0.3053
    182 H5'         8.9190   -5.7731   -1.5089 H         6   A21       0.0679
    183 H5''        7.3483   -6.2009   -0.7970 H         6   A21       0.0679
    184 H4'         8.1038   -4.0186    0.0188 H         6   A21       0.1174
    185 H3'        10.5291   -5.5431    1.0784 H         6   A21       0.0615
    186 H2'        10.5523   -3.9073    2.7909 H         6   A21       0.0972
    187 H1'         7.7564   -3.7357    3.0138 H         6   A21       0.2007
    188 H8          9.5128   -7.1584    2.8954 H         6   A21       0.1553
    189 H2          8.3590   -2.7579    7.4602 H         6   A21       0.0473
    190 HO2'        8.9836   -2.0498    2.5540 H         6   A21       0.4186
    191 H61         9.5667   -6.5487    8.9796 H         6   A21       0.4115
    192 H62        10.5001   -7.5751    7.8199 H         6   A21       0.4115
    193 P          11.8540   -4.4920   -1.0160 P.3       7   U22       1.1662
    194 OP1        12.1340   -3.5130   -2.0760 O.co2     7   U22      -0.7760
    195 OP2        11.6090   -5.9020   -1.3920 O.co2     7   U22      -0.7760
    196 O5'        13.0530   -4.4320    0.0580 O.3       7   U22      -0.4989
    197 C5'        14.1440   -5.3560    0.1050 C.3       7   U22       0.0558
    198 C4'        14.6520   -5.4890    1.5300 C.3       7   U22       0.1065
    199 O4'        14.9860   -4.1690    2.0430 O.3       7   U22      -0.3548
    200 C3'        13.6460   -6.0730    2.5090 C.3       7   U22       0.2022
    201 O3'        14.2960   -6.8560    3.5000 O.3       7   U22      -0.5246
    202 C2'        13.0240   -4.8100    3.1040 C.3       7   U22       0.0670
    203 O2'        12.4260   -5.0300    4.3580 O.3       7   U22      -0.6139
    204 C1'        14.2540   -3.9110    3.2120 C.3       7   U22       0.0674
    205 N1         13.9320   -2.4640    3.2140 N.am      7   U22       0.0418
    206 C2         14.1890   -1.6940    4.3380 C.2       7   U22       0.4687
    207 O2         14.6860   -2.1210    5.3750 O.2       7   U22      -0.5477
    208 N3         13.8520   -0.3720    4.2020 N.am      7   U22      -0.3549
    209 C4         13.2780    0.2200    3.0980 C.2       7   U22       0.5952
    210 O4         13.0260    1.4030    3.1450 O.2       7   U22      -0.5761
    211 C5         13.0360   -0.6380    1.9620 C.2       7   U22      -0.3635
    212 C6         13.3570   -1.9260    2.0610 C.2       7   U22      -0.1126
    213 H5'        13.8074   -6.3299   -0.2503 H         7   U22       0.0679
    214 H5''       14.9503   -4.9966   -0.5344 H         7   U22       0.0679
    215 H4'        15.5492   -6.1080    1.5310 H         7   U22       0.1174
    216 H3'        12.8943   -6.6623    1.9838 H         7   U22       0.0615
    217 H2'        12.3013   -4.3809    2.4100 H         7   U22       0.0972
    218 H1'        14.8399   -4.1718    4.0934 H         7   U22       0.1824
    219 H3         14.0439    0.2288    4.9909 H         7   U22       0.3154
    220 H5         12.6048   -0.2440    1.0536 H         7   U22       0.1811
    221 H6         13.1662   -2.5771    1.2208 H         7   U22       0.2188
    222 HO2'       11.6587   -5.5972    4.2521 H         7   U22       0.4186
    223 P          14.6300   -8.4030    3.3610 P.3       8   A23       1.1662
    224 OP1        13.9090   -8.9710    2.1900 O.co2     8   A23      -0.7760
    225 OP2        14.4690   -8.9870    4.7050 O.co2     8   A23      -0.7760
    226 O5'        16.1960   -8.4450    3.0890 O.3       8   A23      -0.4989
    227 C5'        17.0430   -7.6770    3.9260 C.3       8   A23       0.0558
    228 C4'        18.2940   -7.3130    3.1610 C.3       8   A23       0.1065
    229 O4'        17.9090   -6.5970    1.9680 O.3       8   A23      -0.3548
    230 C3'        19.2480   -6.3390    3.8380 C.3       8   A23       0.2022
    231 O3'        20.0990   -6.9980    4.7910 O.3       8   A23      -0.5246
    232 C2'        20.0110   -5.7590    2.6450 C.3       8   A23       0.0670
    233 O2'        21.2020   -6.4580    2.3230 O.3       8   A23      -0.6139
    234 C1'        18.9960   -5.8280    1.4980 C.3       8   A23       0.0394
    235 N9         18.4500   -4.5360    1.0710 N.ar      8   A23      -0.0251
    236 C8         18.2340   -4.1200   -0.2130 C.ar      8   A23       0.2006
    237 N7         17.7220   -2.9070   -0.3170 N.ar      8   A23      -0.6073
    238 C5         17.5870   -2.5030    1.0070 C.ar      8   A23       0.0515
    239 C6         17.0970   -1.3160    1.5980 C.ar      8   A23       0.7009
    240 N6         16.6490   -0.2750    0.8890 N.pl3     8   A23      -0.9019
    241 N1         17.1100   -1.2290    2.9560 N.ar      8   A23      -0.7615
    242 C2         17.5610   -2.2640    3.6800 C.ar      8   A23       0.5875
    243 N3         18.0300   -3.4250    3.2270 N.ar      8   A23      -0.6997
    244 C4         18.0350   -3.4870    1.8740 C.ar      8   A23       0.3053
    245 H5'        16.5257   -6.7682    4.2336 H         8   A23       0.0679
    246 H5''       17.3110   -8.2600    4.8071 H         8   A23       0.0679
    247 H4'        18.8317   -8.2203    2.8858 H         8   A23       0.1174
    248 H3'        18.6811   -5.5503    4.3326 H         8   A23       0.0615
    249 H2'        20.2520   -4.7154    2.8474 H         8   A23       0.0972
    250 H1'        19.4502   -6.3288    0.6430 H         8   A23       0.2007
    251 H8         18.4632   -4.7330   -1.0721 H         8   A23       0.1553
    252 H2         17.5416   -2.1418    4.7529 H         8   A23       0.0473
    253 H61        16.4638    0.6602    1.2224 H         8   A23       0.4115
    254 H62        16.1553   -0.1243    0.0209 H         8   A23       0.4115
    255 HO2'       21.8173   -6.3979    3.0574 H         8   A23       0.4186
    256 P          19.8660   -6.7720    6.3550 P.3       9   A24       1.1662
    257 OP1        20.8620   -7.6320    7.0490 O.co2     9   A24      -0.7760
    258 OP2        18.4510   -6.8680    6.7480 O.co2     9   A24      -0.7760
    259 O5'        20.3670   -5.2650    6.5250 O.3       9   A24      -0.4989
    260 C5'        19.5870   -4.1180    6.2390 C.3       9   A24       0.0558
    261 C4'        19.4640   -3.2480    7.4630 C.3       9   A24       0.1065
    262 O4'        18.5670   -3.8910    8.3990 O.3       9   A24      -0.3548
    263 C3'        20.7340   -3.0200    8.2820 C.3       9   A24       0.2022
    264 O3'        21.5470   -2.0240    7.6420 O.3       9   A24      -0.5246
    265 C2'        20.1240   -2.5510    9.6010 C.3       9   A24       0.0670
    266 O2'        19.6060   -1.2370    9.5510 O.3       9   A24      -0.6139
    267 C1'        18.9080   -3.4740    9.7080 C.3       9   A24       0.0394
    268 N9         19.0470   -4.6300   10.5920 N.ar      9   A24      -0.0251
    269 C8         19.0750   -5.9600   10.2430 C.ar      9   A24       0.2006
    270 N7         19.1590   -6.7600   11.2760 N.ar      9   A24      -0.6073
    271 C5         19.1660   -5.9100   12.3650 C.ar      9   A24       0.0515
    272 C6         19.2220   -6.1410   13.7580 C.ar      9   A24       0.7009
    273 N6         19.2870   -7.3720   14.2500 N.pl3     9   A24      -0.9019
    274 N1         19.1990   -5.0690   14.5860 N.ar      9   A24      -0.7615
    275 C2         19.1250   -3.8360   14.0510 C.ar      9   A24       0.5875
    276 N3         19.0550   -3.5070   12.7570 N.ar      9   A24      -0.6997
    277 C4         19.0740   -4.5920   11.9700 C.ar      9   A24       0.3053
    278 H5'        20.0640   -3.5493    5.4408 H         9   A24       0.0679
    279 H5''       18.5934   -4.4289    5.9162 H         9   A24       0.0679
    280 H4'        19.0472   -2.2830    7.1746 H         9   A24       0.1174
    281 H3'        21.2865   -3.9502    8.4149 H         9   A24       0.0615
    282 H2'        20.8108   -2.6854   10.4367 H         9   A24       0.0972
    283 H1'        18.0784   -2.8755   10.0844 H         9   A24       0.2007
    284 H8         19.0321   -6.3087    9.2217 H         9   A24       0.1553
    285 H2         19.1218   -3.0137   14.7512 H         9   A24       0.0473
    286 H61        19.3004   -8.1655   13.6253 H         9   A24       0.4115
    287 H62        19.3230   -7.5153   15.2491 H         9   A24       0.4115
    288 HO2'       19.2140   -1.0153   10.3988 H         9   A24       0.4186
    289 P          23.1200   -2.2660    7.3360 P.3      10   U25       1.1662
    290 OP1        23.5610   -3.6120    7.7970 O.co2    10   U25      -0.7760
    291 OP2        23.8310   -1.0510    7.7930 O.co2    10   U25      -0.7760
    292 O5'        23.1420   -2.2300    5.7470 O.3      10   U25      -0.4989
    293 C5'        22.9130   -3.4110    4.9620 C.3      10   U25       0.0558
    294 C4'        22.4410   -3.0390    3.5720 C.3      10   U25       0.1065
    295 O4'        21.0840   -2.5410    3.6870 O.3      10   U25      -0.3548
    296 C3'        23.2010   -1.9020    2.8950 C.3      10   U25       0.2022
    297 O3'        24.3640   -2.4050    2.2200 O.3      10   U25      -0.5246
    298 C2'        22.1520   -1.3800    1.9240 C.3      10   U25       0.0670
    299 O2'        22.0480   -2.1900    0.7680 O.3      10   U25      -0.6139
    300 C1'        20.8890   -1.4780    2.7750 C.3      10   U25       0.0674
    301 N1         20.5370   -0.2010    3.5100 N.am     10   U25       0.0418
    302 C2         20.0720    0.8710    2.7770 C.2      10   U25       0.4687
    303 O2         19.9490    0.8350    1.5700 O.2      10   U25      -0.5477
    304 N3         19.7570    1.9900    3.4990 N.am     10   U25      -0.3549
    305 C4         19.8520    2.1500    4.8680 C.2      10   U25       0.5952
    306 O4         19.5420    3.2310    5.3440 O.2      10   U25      -0.5761
    307 C5         20.3340    0.9960    5.5920 C.2      10   U25      -0.3635
    308 C6         20.6360   -0.1120    4.8930 C.2      10   U25      -0.1126
    309 H5'        22.1525   -4.0227    5.4475 H        10   U25       0.0679
    310 H5''       23.8398   -3.9798    4.8878 H        10   U25       0.0679
    311 H4'        22.4547   -3.9212    2.9319 H        10   U25       0.1174
    312 H3'        23.4749   -1.1344    3.6187 H        10   U25       0.0615
    313 H2'        22.3567   -0.3442    1.6534 H        10   U25       0.0972
    314 H1'        20.0559   -1.7369    2.1215 H        10   U25       0.1824
    315 H3         19.4187    2.7843    2.9748 H        10   U25       0.3154
    316 H5         20.4485    1.0229    6.6656 H        10   U25       0.1811
    317 H6         20.9745   -0.9815    5.4369 H        10   U25       0.2188
    318 HO2'       22.8520   -2.1127    0.2491 H        10   U25       0.4186
    319 P          25.7810   -1.6660    2.3410 P.3      11   C26       1.1662
    320 OP1        26.7990   -2.4250    1.5790 O.co2    11   C26      -0.7760
    321 OP2        26.0200   -1.3250    3.7760 O.co2    11   C26      -0.7760
    322 O5'        25.5110   -0.2940    1.5780 O.3      11   C26      -0.4989
    323 C5'        25.2490   -0.2360    0.1890 C.3      11   C26       0.0558
    324 C4'        24.5520    1.0620   -0.1470 C.3      11   C26       0.1065
    325 O4'        23.2830    1.1990    0.5600 O.3      11   C26      -0.3548
    326 C3'        25.3030    2.2960    0.3000 C.3      11   C26       0.2022
    327 O3'        26.3870    2.5330   -0.5800 O.3      11   C26      -0.5246
    328 C2'        24.1950    3.3470    0.2260 C.3      11   C26       0.0670
    329 O2'        23.8870    3.7240   -1.0970 O.3      11   C26      -0.6139
    330 C1'        23.0420    2.5680    0.8550 C.3      11   C26       0.0066
    331 N1         22.9980    2.7910    2.3470 N.am     11   C26      -0.0484
    332 C2         22.5310    4.0220    2.8690 C.2      11   C26       0.7538
    333 O2         22.1400    4.9270    2.1030 O.2      11   C26      -0.6252
    334 N3         22.5220    4.1920    4.2240 N.2      11   C26      -0.7584
    335 C4         22.9620    3.2190    5.0350 C.2      11   C26       0.8185
    336 N4         22.9150    3.4400    6.3520 N.pl3    11   C26      -0.9530
    337 C5         23.4360    1.9630    4.5370 C.2      11   C26      -0.5215
    338 C6         23.4410    1.8060    3.2010 C.2      11   C26       0.0053
    339 H5'        26.1894   -0.2940   -0.3592 H        11   C26       0.0679
    340 H5''       24.6118   -1.0735   -0.0949 H        11   C26       0.0679
    341 H4'        24.3766    1.1127   -1.2216 H        11   C26       0.1174
    342 H3'        25.6569    2.1812    1.3245 H        11   C26       0.0615
    343 H2'        24.4476    4.2194    0.8287 H        11   C26       0.0972
    344 H1'        22.0985    2.8808    0.4077 H        11   C26       0.2029
    345 H5         23.7728    1.1806    5.2010 H        11   C26       0.1928
    346 H6         23.8040    0.8778    2.7850 H        11   C26       0.1958
    347 H41        22.5688    4.3210    6.7042 H        11   C26       0.4234
    348 H42        23.2257    2.7260    6.9953 H        11   C26       0.4234
    349 HO2'       24.1815    4.6248   -1.2503 H        11   C26       0.4186
    350 P          27.5510    3.4750   -0.0400 P.3      12   G27       1.1662
    351 OP1        28.8400    2.9530   -0.5440 O.co2    12   G27      -0.7760
    352 OP2        27.3670    3.6520    1.4300 O.co2    12   G27      -0.7760
    353 O5'        27.1470    4.8750   -0.7310 O.3      12   G27      -0.4989
    354 C5'        26.8690    4.9710   -2.1320 C.3      12   G27       0.0558
    355 C4'        26.4580    6.3720   -2.5350 C.3      12   G27       0.1065
    356 O4'        25.0530    6.6170   -2.2370 O.3      12   G27      -0.3548
    357 C3'        27.1810    7.4910   -1.8050 C.3      12   G27       0.2022
    358 O3'        28.4340    7.7500   -2.3760 O.3      12   G27      -0.5246
    359 C2'        26.2340    8.6540   -2.0530 C.3      12   G27       0.0670
    360 O2'        26.2980    9.1740   -3.3750 O.3      12   G27      -0.6139
    361 C1'        24.9200    7.9420   -1.7450 C.3      12   G27       0.0191
    362 N9         24.6650    7.9600   -0.2990 N.ar     12   G27       0.0492
    363 C8         24.9020    6.9670    0.6200 C.ar     12   G27       0.1374
    364 N7         24.5820    7.3010    1.8330 N.ar     12   G27      -0.5709
    365 C5         24.1380    8.6140    1.7190 C.ar     12   G27       0.1744
    366 C6         23.6430    9.5120    2.6880 C.2      12   G27       0.4770
    367 O6         23.5080    9.3220    3.9030 O.2      12   G27      -0.5597
    368 N1         23.2790   10.7430    2.1350 N.am     12   G27      -0.4787
    369 C2         23.3790   11.0600    0.7960 C.2      12   G27       0.7657
    370 N2         22.9890   12.2850    0.4280 N.pl3    12   G27      -0.9672
    371 N3         23.8270   10.2290   -0.1230 N.2      12   G27      -0.6323
    372 C4         24.1900    9.0290    0.4070 C.ar     12   G27       0.1222
    373 H5'        27.7646    4.6936   -2.6880 H        12   G27       0.0679
    374 H5''       26.0656    4.2786   -2.3834 H        12   G27       0.0679
    375 H4'        26.6165    6.4908   -3.6068 H        12   G27       0.1174
    376 H3'        27.2698    7.2747   -0.7404 H        12   G27       0.0615
    377 H2'        26.4124    9.4470   -1.3268 H        12   G27       0.0972
    378 H1'        24.1036    8.4433   -2.2650 H        12   G27       0.2006
    379 H8         25.3140    6.0033    0.3592 H        12   G27       0.1640
    380 H1         22.9175   11.4499    2.7593 H        12   G27       0.3424
    381 H21        22.6413   12.9334    1.1199 H        12   G27       0.4364
    382 H22        23.0421   12.5618   -0.5419 H        12   G27       0.4364
    383 HO2'       27.1439    9.6081   -3.5080 H        12   G27       0.4186
    384 P          29.7290    7.8950   -1.4430 P.3      13   C28       1.1662
    385 OP1        30.8890    7.6430   -2.3300 O.co2    13   C28      -0.7760
    386 OP2        29.5490    7.2090   -0.1220 O.co2    13   C28      -0.7760
    387 O5'        29.6980    9.4500   -1.0530 O.3      13   C28      -0.4989
    388 C5'        29.7600   10.4610   -2.0280 C.3      13   C28       0.0558
    389 C4'        29.1590   11.7610   -1.5070 C.3      13   C28       0.1065
    390 O4'        27.7840   11.5340   -1.0840 O.3      13   C28      -0.3548
    391 C3'        29.7810   12.4680   -0.2990 C.3      13   C28       0.2022
    392 O3'        30.9690   13.2080   -0.5890 O.3      13   C28      -0.5246
    393 C2'        28.6000   13.3730    0.0810 C.3      13   C28       0.0670
    394 O2'        28.3860   14.4420   -0.8110 O.3      13   C28      -0.6139
    395 C1'        27.4350   12.4150   -0.0340 C.3      13   C28       0.0066
    396 N1         27.1860   11.6630    1.2370 N.am     13   C28      -0.0484
    397 C2         26.5260   12.3290    2.2910 C.2      13   C28       0.7538
    398 O2         26.1080   13.4920    2.1420 O.2      13   C28      -0.6252
    399 N3         26.3080   11.6270    3.4300 N.2      13   C28      -0.7584
    400 C4         26.7460   10.3690    3.5670 C.2      13   C28       0.8185
    401 N4         26.5140    9.7570    4.7240 N.pl3    13   C28      -0.9530
    402 C5         27.4570    9.6830    2.5240 C.2      13   C28      -0.5215
    403 C6         27.6430   10.3720    1.3890 C.2      13   C28       0.0053
    404 H5'        29.2050   10.1402   -2.9095 H        13   C28       0.0679
    405 H5''       30.8011   10.6316   -2.3021 H        13   C28       0.0679
    406 H4'        29.1389   12.4717   -2.3332 H        13   C28       0.1174
    407 H3'        29.9730   11.7490    0.4975 H        13   C28       0.0615
    408 H2'        28.7035   13.7363    1.1035 H        13   C28       0.0972
    409 H1'        26.5371   12.9683   -0.3091 H        13   C28       0.2029
    410 H5         27.8198    8.6732    2.6468 H        13   C28       0.1928
    411 H6         28.1664    9.9013    0.5699 H        13   C28       0.1958
    412 H41        26.0185   10.2395    5.4601 H        13   C28       0.4234
    413 H42        26.8332    8.8095    4.8670 H        13   C28       0.4234
    414 HO2'       27.5682   14.8901   -0.5831 H        13   C28       0.4186
    415 P          32.0140   13.5490    0.5590 P.3      14   G29       1.1662
    416 OP1        33.3210   13.9790    0.0160 O.co2    14   G29      -0.7760
    417 OP2        31.9660   12.4900    1.6060 O.co2    14   G29      -0.7760
    418 O5'        31.3880   14.8290    1.2820 O.3      14   G29      -0.4989
    419 C5'        31.0040   16.0430    0.6240 C.3      14   G29       0.0558
    420 C4'        30.2750   16.9220    1.6230 C.3      14   G29       0.1065
    421 O4'        29.0170   16.3020    2.0260 O.3      14   G29      -0.3548
    422 C3'        31.0450   17.1480    2.9210 C.3      14   G29       0.2022
    423 O3'        32.0290   18.1710    2.8020 O.3      14   G29      -0.5246
    424 C2'        29.8950   17.5220    3.8490 C.3      14   G29       0.0670
    425 O2'        29.3950   18.8400    3.6830 O.3      14   G29      -0.6139
    426 C1'        28.8050   16.5640    3.4040 C.3      14   G29       0.0191
    427 N9         28.8170   15.3040    4.1420 N.ar     14   G29       0.0492
    428 C8         29.2360   14.0760    3.7110 C.ar     14   G29       0.1374
    429 N7         29.0970   13.1400    4.6040 N.ar     14   G29      -0.5709
    430 C5         28.4900   13.7830    5.6720 C.ar     14   G29       0.1744
    431 C6         28.0560   13.2790    6.9190 C.2      14   G29       0.4770
    432 O6         28.1650   12.1100    7.3130 O.2      14   G29      -0.5597
    433 N1         27.5330   14.2890    7.7180 N.am     14   G29      -0.4787
    434 C2         27.3690   15.6130    7.3620 C.2      14   G29       0.7657
    435 N2         26.8080   16.4390    8.2710 N.pl3    14   G29      -0.9672
    436 N3         27.7630   16.0870    6.1940 N.2      14   G29      -0.6323
    437 C4         28.2810   15.1120    5.4060 C.ar     14   G29       0.1222
    438 H5'        30.3453   15.8145   -0.2139 H        14   G29       0.0679
    439 H5''       31.8924   16.5599    0.2612 H        14   G29       0.0679
    440 H4'        30.0646   17.8867    1.1613 H        14   G29       0.1174
    441 H3'        31.5074   16.2177    3.2510 H        14   G29       0.0615
    442 H2'        30.1654   17.3410    4.8893 H        14   G29       0.0972
    443 H1'        27.8343   17.0433    3.5313 H        14   G29       0.2006
    444 H8         29.6425   13.9002    2.7260 H        14   G29       0.1640
    445 H1         27.2447   14.0290    8.6504 H        14   G29       0.3424
    446 H21        26.5162   16.0789    9.1684 H        14   G29       0.4364
    447 H22        26.6802   17.4170    8.0535 H        14   G29       0.4364
    448 HO2'       30.0629   19.4729    3.9567 H        14   G29       0.4186
    449 P          33.5040   18.0140    3.4100 P.3      15   U30       1.1662
    450 OP1        34.4690   19.0240    2.9040 O.co2    15   U30      -0.7760
    451 OP2        33.8260   16.5650    3.3840 O.co2    15   U30      -0.7760
    452 O5'        33.1940   18.3590    4.9490 O.3      15   U30      -0.4989
    453 C5'        33.0460   19.7010    5.3460 C.3      15   U30       0.0558
    454 C4'        32.5990   19.7300    6.8030 C.3      15   U30       0.1065
    455 O4'        31.3090   19.0820    6.9370 O.3      15   U30      -0.3548
    456 C3'        33.4970   18.9580    7.7400 C.3      15   U30       0.2022
    457 O3'        34.7140   19.6740    7.9960 O.3      15   U30      -0.5246
    458 C2'        32.5680   18.7750    8.9460 C.3      15   U30       0.0670
    459 O2'        32.4110   19.9820    9.6750 O.3      15   U30      -0.6139
    460 C1'        31.2840   18.4310    8.1950 C.3      15   U30       0.0674
    461 N1         31.2330   16.9660    8.0180 N.am     15   U30       0.0418
    462 C2         30.8460   16.2300    9.1250 C.2      15   U30       0.4687
    463 O2         30.5610   16.7610   10.1790 O.2      15   U30      -0.5477
    464 N3         30.8220   14.8700    8.9500 N.am     15   U30      -0.3549
    465 C4         31.1510   14.1910    7.8020 C.2      15   U30       0.5952
    466 O4         31.0990   12.9690    7.7880 O.2      15   U30      -0.5761
    467 C5         31.5510   15.0180    6.6800 C.2      15   U30      -0.3635
    468 C6         31.5950   16.3510    6.8200 C.2      15   U30      -0.1126
    469 H5'        33.9983   20.2214    5.2437 H        15   U30       0.0679
    470 H5''       32.2948   20.1864    4.7229 H        15   U30       0.0679
    471 H4'        32.5238   20.7638    7.1402 H        15   U30       0.1174
    472 H3'        33.7290   17.9854    7.3060 H        15   U30       0.0615
    473 H2'        32.8937   17.9553    9.5865 H        15   U30       0.0972
    474 H1'        30.4190   18.7652    8.7679 H        15   U30       0.1824
    475 H3         30.5345   14.3135    9.7423 H        15   U30       0.3154
    476 H5         31.8122   14.5626    5.7362 H        15   U30       0.1811
    477 H6         31.9172   16.9602    5.9885 H        15   U30       0.2188
    478 HO2'       32.8737   19.9126   10.5132 H        15   U30       0.4186
    479 P          36.0690   18.9380    8.3920 P.3      16   G31       1.1662
    480 OP1        37.2200   19.8860    8.5060 O.co2    16   G31      -0.7760
    481 OP2        36.2240   17.7730    7.4980 O.co2    16   G31      -0.7760
    482 O5'        35.7740   18.3670    9.8510 O.3      16   G31      -0.4989
    483 C5'        35.6150   19.2840   10.9290 C.3      16   G31       0.0558
    484 C4'        35.0790   18.5610   12.1520 C.3      16   G31       0.1065
    485 O4'        33.7950   17.9960   11.7950 O.3      16   G31      -0.3548
    486 C3'        35.8610   17.3630   12.6660 C.3      16   G31       0.2022
    487 O3'        36.9760   17.7980   13.4300 O.3      16   G31      -0.5246
    488 C2'        34.7750   16.7090   13.5040 C.3      16   G31       0.0670
    489 O2'        34.4930   17.4170   14.6800 O.3      16   G31      -0.6139
    490 C1'        33.6320   16.7740   12.4960 C.3      16   G31       0.0191
    491 N9         33.7200   15.6540   11.5540 N.ar     16   G31       0.0492
    492 C8         34.0770   15.6130   10.2120 C.ar     16   G31       0.1374
    493 N7         34.0670   14.3790    9.7270 N.ar     16   G31      -0.5709
    494 C5         33.6600   13.5820   10.8000 C.ar     16   G31       0.1744
    495 C6         33.4530   12.1630   10.9340 C.2      16   G31       0.4770
    496 O6         33.5700   11.2610   10.0980 O.2      16   G31      -0.5597
    497 N1         33.0490   11.7800   12.2320 N.am     16   G31      -0.4787
    498 C2         32.9270   12.6530   13.2730 C.2      16   G31       0.7657
    499 N2         32.5450   12.1300   14.4430 N.pl3    16   G31      -0.9672
    500 N3         33.0780   13.9760   13.1550 N.2      16   G31      -0.6323
    501 C4         33.4620   14.3560   11.9090 C.ar     16   G31       0.1222
    502 H5'        36.5802   19.7305   11.1681 H        16   G31       0.0679
    503 H5''       34.9162   20.0679   10.6370 H        16   G31       0.0679
    504 H4'        34.9440   19.2770   12.9627 H        16   G31       0.1174
    505 H3'        36.1724   16.7142   11.8474 H        16   G31       0.0615
    506 H2'        35.0323   15.6740   13.7292 H        16   G31       0.0972
    507 H1'        32.6719   16.7594   13.0119 H        16   G31       0.2006
    508 H8         34.3333   16.4862    9.6304 H        16   G31       0.1640
    509 H1         32.8389   10.8062   12.3986 H        16   G31       0.3424
    510 H21        32.3971   11.1344   14.5272 H        16   G31       0.4364
    511 H22        32.4043   12.7307   15.2426 H        16   G31       0.4364
    512 HO2'       34.3092   16.7977   15.3901 H        16   G31       0.4186
    513 P          38.2110   16.8810   13.8300 P.3      17   G32       1.1662
    514 OP1        39.1270   17.6980   14.6820 O.co2    17   G32      -0.7760
    515 OP2        38.7760   16.2410   12.6140 O.co2    17   G32      -0.7760
    516 O5'        37.6570   15.6610   14.6830 O.3      17   G32      -0.4989
    517 C5'        37.1280   15.7990   15.9610 C.3      17   G32       0.0558
    518 C4'        36.6690   14.4110   16.4130 C.3      17   G32       0.1065
    519 O4'        35.5610   13.8990   15.6450 O.3      17   G32      -0.3548
    520 C3'        37.7090   13.3090   16.3380 C.3      17   G32       0.2022
    521 O3'        38.4840   13.5050   17.4660 O.3      17   G32      -0.5246
    522 C2'        36.8320   12.0720   16.5000 C.3      17   G32       0.0670
    523 O2'        36.3090   11.9200   17.8200 O.3      17   G32      -0.6139
    524 C1'        35.7310   12.4940   15.5310 C.3      17   G32       0.0191
    525 N9         36.0520   12.1770   14.1370 N.ar     17   G32       0.0492
    526 C8         36.3460   13.0460   13.1270 C.ar     17   G32       0.1374
    527 N7         36.5840   12.4790   11.9740 N.ar     17   G32      -0.5709
    528 C5         36.4250   11.1330   12.2390 C.ar     17   G32       0.1744
    529 C6         36.5330   10.0000   11.3970 C.2      17   G32       0.4770
    530 O6         36.8300    9.9730   10.1910 O.2      17   G32      -0.5597
    531 N1         36.3130    8.7920   12.0650 N.am     17   G32      -0.4787
    532 C2         35.9710    8.7110   13.3980 C.2      17   G32       0.7657
    533 N2         35.7990    7.4860   13.9090 N.pl3    17   G32      -0.9672
    534 N3         35.8670    9.7650   14.2060 N.2      17   G32      -0.6323
    535 C4         36.0830   10.9310   13.5720 C.ar     17   G32       0.1222
    536 H5'        36.2809   16.4846   15.9424 H        17   G32       0.0679
    537 H5''       37.8935   16.1749   16.6398 H        17   G32       0.0679
    538 H4'        36.3446   14.4906   17.4505 H        17   G32       0.1174
    539 H3'        38.2824   13.3159   15.4110 H        17   G32       0.0615
    540 H2'        37.3418   11.1697   16.1623 H        17   G32       0.0972
    541 H1'        34.8010   11.9969   15.8067 H        17   G32       0.2006
    542 H8         36.3793   14.1161   13.2690 H        17   G32       0.1640
    543 H1         36.4098    7.9327   11.5432 H        17   G32       0.3424
    544 H21        35.8972    6.6734   13.3172 H        17   G32       0.4364
    545 H22        35.5710    7.3741   14.8865 H        17   G32       0.4364
    546 HO2'       35.6230   11.2485   17.8170 H        17   G32       0.4186
    547 P          39.9740   13.0100   17.5020 P.3      18   A33       1.1662
    548 OP1        40.5260   13.5580   18.7500 O.co2    18   A33      -0.7760
    549 OP2        40.6430   13.2110   16.2010 O.co2    18   A33      -0.7760
    550 O5'        39.8910   11.4100   17.5650 O.3      18   A33      -0.4989
    551 C5'        39.4470   10.8330   18.7740 C.3      18   A33       0.0558
    552 C4'        39.3090    9.3370   18.5680 C.3      18   A33       0.1065
    553 O4'        38.3920    9.0290   17.4740 O.3      18   A33      -0.3548
    554 C3'        40.5740    8.6330   18.1180 C.3      18   A33       0.2022
    555 O3'        41.4790    8.5560   19.2240 O.3      18   A33      -0.5246
    556 C2'        40.0180    7.2810   17.6880 C.3      18   A33       0.0670
    557 O2'        39.6470    6.4900   18.7980 O.3      18   A33      -0.6139
    558 C1'        38.7800    7.7570   16.9440 C.3      18   A33       0.0394
    559 N9         39.0070    7.8690   15.4900 N.ar     18   A33      -0.0251
    560 C8         39.0340    9.0080   14.7490 C.ar     18   A33       0.2006
    561 N7         39.2240    8.7680   13.4650 N.ar     18   A33      -0.6073
    562 C5         39.2900    7.3860   13.3500 C.ar     18   A33       0.0515
    563 C6         39.4820    6.4830   12.2650 C.ar     18   A33       0.7009
    564 N6         39.6400    6.9110   10.9930 N.pl3    18   A33      -0.9019
    565 N1         39.5480    5.1420   12.5350 N.ar     18   A33      -0.7615
    566 C2         39.3950    4.7330   13.8040 C.ar     18   A33       0.5875
    567 N3         39.2060    5.4860   14.8910 N.ar     18   A33      -0.6997
    568 C4         39.1580    6.8090   14.6070 C.ar     18   A33       0.3053
    569 H5'        40.1717   11.0304   19.5639 H        18   A33       0.0679
    570 H5''       38.4807   11.2559   19.0489 H        18   A33       0.0679
    571 H4'        38.9451    8.8766   19.4865 H        18   A33       0.1174
    572 H3'        41.0309    9.1525   17.2757 H        18   A33       0.0615
    573 H2'        40.7067    6.7529   17.0286 H        18   A33       0.0972
    574 H1'        37.9729    7.0453   17.1177 H        18   A33       0.2007
    575 H8         38.9136    9.9978   15.1639 H        18   A33       0.1553
    576 H2         39.4288    3.6658   13.9660 H        18   A33       0.0473
    577 HO2'       39.5125    5.5828   18.5144 H        18   A33       0.4186
    578 H61        39.5062    6.1698   10.3201 H        18   A33       0.4115
    579 H62        39.8661    7.8633   10.7437 H        18   A33       0.4115
    580 P          43.0570    8.5860   19.0220 P.3      19   U34       1.1662
    581 OP1        43.7420    8.6030   20.3420 O.co2    19   U34      -0.7760
    582 OP2        43.3850    9.6590   18.0430 O.co2    19   U34      -0.7760
    583 O5'        43.3480    7.2190   18.2960 O.3      19   U34      -0.4989
    584 C5'        43.1280    5.9850   18.9430 C.3      19   U34       0.0558
    585 C4'        43.3220    4.8780   17.9190 C.3      19   U34       0.1065
    586 O4'        42.4670    5.1410   16.7750 O.3      19   U34      -0.3548
    587 C3'        44.7380    4.7490   17.3900 C.3      19   U34       0.2022
    588 O3'        45.0200    3.3910   17.3200 O.3      19   U34      -0.5246
    589 C2'        44.6360    5.3210   15.9970 C.3      19   U34       0.0670
    590 O2'        45.6050    4.7870   15.1260 O.3      19   U34      -0.6139
    591 C1'        43.1940    5.0040   15.5840 C.3      19   U34       0.0674
    592 N1         42.8580    6.0340   14.5890 N.am     19   U34       0.0418
    593 C2         42.8120    5.6790   13.2480 C.2      19   U34       0.4687
    594 O2         42.9320    4.5300   12.8300 O.2      19   U34      -0.5477
    595 N3         42.5630    6.7320   12.3920 N.am     19   U34      -0.3549
    596 C4         42.4250    8.0660   12.7300 C.2      19   U34       0.5952
    597 O4         42.2250    8.8960   11.8570 O.2      19   U34      -0.5761
    598 C5         42.5050    8.3490   14.1350 C.2      19   U34      -0.3635
    599 C6         42.7250    7.3440   14.9890 C.2      19   U34      -0.1126
    600 H5'        43.8401    5.8630   19.7592 H        19   U34       0.0679
    601 H5''       42.1110    5.9506   19.3338 H        19   U34       0.0679
    602 H4'        43.0268    3.9293   18.3673 H        19   U34       0.1174
    603 H3'        45.4584    5.2882   18.0051 H        19   U34       0.0615
    604 H2'        44.7613    6.4026   16.0473 H        19   U34       0.0972
    605 H1'        43.1046    3.9995   15.1704 H        19   U34       0.1824
    606 H3         42.4716    6.5039   11.4123 H        19   U34       0.3154
    607 H5         42.3891    9.3598   14.4973 H        19   U34       0.1811
    608 H6         42.8019    7.5709   16.0421 H        19   U34       0.2188
    609 HO2'       46.4770    4.8924   15.5134 H        19   U34       0.4186
    610 P          46.0240    2.7120   18.3470 P.3      20   A35       1.1662
    611 OP1        45.5970    3.1250   19.7250 O.co2    20   A35      -0.7760
    612 OP2        47.4100    3.0010   17.9020 O.co2    20   A35      -0.7760
    613 O5'        45.7530    1.1860   18.1270 O.3      20   A35      -0.4989
    614 C5'        44.5420    0.5130   18.5600 C.3      20   A35       0.0558
    615 C4'        44.6900   -0.9810   18.3260 C.3      20   A35       0.1065
    616 O4'        44.6610   -1.2750   16.9060 O.3      20   A35      -0.3548
    617 C3'        46.0420   -1.5280   18.8100 C.3      20   A35       0.2022
    618 O3'        45.8600   -2.8200   19.4120 O.3      20   A35      -0.5246
    619 C2'        46.8810   -1.5820   17.5350 C.3      20   A35       0.0670
    620 O2'        47.8560   -2.5960   17.6310 O.3      20   A35      -0.6139
    621 C1'        45.8560   -1.8880   16.4520 C.3      20   A35       0.0394
    622 N9         46.2110   -1.2610   15.1800 N.ar     20   A35      -0.0251
    623 C8         45.9770    0.0400   14.8160 C.ar     20   A35       0.2006
    624 N7         46.4020    0.3720   13.6110 N.ar     20   A35      -0.6073
    625 C5         46.9530   -0.8130   13.1660 C.ar     20   A35       0.0515
    626 C6         47.5920   -1.1450   11.9530 C.ar     20   A35       0.7009
    627 N6         47.7470   -0.2490   10.9710 N.pl3    20   A35      -0.9019
    628 N1         48.0360   -2.4180   11.8140 N.ar     20   A35      -0.7615
    629 C2         47.8690   -3.2970   12.8120 C.ar     20   A35       0.5875
    630 N3         47.2930   -3.1010   14.0030 N.ar     20   A35      -0.6997
    631 C4         46.8580   -1.8300   14.1100 C.ar     20   A35       0.3053
    632 H5'        44.3799    0.7014   19.6213 H        20   A35       0.0679
    633 H5''       43.6926    0.8887   17.9895 H        20   A35       0.0679
    634 H4'        43.8801   -1.5119   18.8263 H        20   A35       0.1174
    635 H3'        46.4910   -0.8398   19.5262 H        20   A35       0.0615
    636 H2'        47.3531   -0.6172   17.3497 H        20   A35       0.0972
    637 H1'        45.7225   -2.9633   16.3334 H        20   A35       0.2007
    638 H8         45.4805    0.7430   15.4684 H        20   A35       0.1553
    639 H2         48.2485   -4.2918   12.6311 H        20   A35       0.0473
    640 H61        47.2813    0.6351   11.1182 H        20   A35       0.4115
    641 H62        48.2907   -0.4430   10.1422 H        20   A35       0.4115
    642 HO2'       48.1792   -2.6447   18.5336 H        20   A35       0.4186
    643 P          45.7580   -2.9310   21.0100 P.3      21   U36       1.1662
    644 OP1        46.9080   -2.2710   21.6490 O.co2    21   U36      -0.7760
    645 OP2        45.5130   -4.3740   21.2800 O.co2    21   U36      -0.7760
    646 O5'        44.4880   -2.0580   21.3850 O.3      21   U36      -0.4989
    647 C5'        43.1620   -2.6010   21.5400 C.3      21   U36       0.0558
    648 C4'        42.4400   -1.8390   22.6340 C.3      21   U36       0.1065
    649 O4'        43.1980   -1.7940   23.8740 O.3      21   U36      -0.3548
    650 C3'        42.1350   -0.3810   22.2720 C.3      21   U36       0.2022
    651 O3'        40.8800   -0.0440   22.8100 O.3      21   U36      -0.5246
    652 C2'        43.2320    0.3500   23.0310 C.3      21   U36       0.0670
    653 O2'        42.9500    1.7090   23.2670 O.3      21   U36      -0.6139
    654 C1'        43.2840   -0.4630   24.3210 C.3      21   U36       0.0674
    655 N1         44.6060   -0.3560   25.0020 N.am     21   U36       0.0418
    656 C2         44.6380    0.2090   26.2620 C.2      21   U36       0.4687
    657 O2         43.6510    0.6120   26.8310 O.2      21   U36      -0.5477
    658 N3         45.8950    0.2690   26.8470 N.am     21   U36      -0.3549
    659 C4         47.0730   -0.1730   26.2820 C.2      21   U36       0.5952
    660 O4         48.1300   -0.0380   26.9230 O.2      21   U36      -0.5761
    661 C5         46.9420   -0.7570   24.9590 C.2      21   U36      -0.3635
    662 C6         45.7310   -0.8410   24.3660 C.2      21   U36      -0.1126
    663 H5'        42.6145   -2.5007   20.6028 H        21   U36       0.0679
    664 H5''       43.2288   -3.6543   21.8123 H        21   U36       0.0679
    665 H4'        41.4947   -2.3442   22.8323 H        21   U36       0.1174
    666 H3'        42.1858   -0.2024   21.1979 H        21   U36       0.0615
    667 H2'        44.1772    0.2560   22.4964 H        21   U36       0.0972
    668 H1'        42.4631   -0.2088   24.9915 H        21   U36       0.1824
    669 H3         45.9524    0.6732   27.7708 H        21   U36       0.3154
    670 H5         47.8177   -1.1263   24.4461 H        21   U36       0.1811
    671 H6         45.6426   -1.2905   23.3880 H        21   U36       0.2188
    672 HO2'       42.9268    2.1813   22.4315 H        21   U36       0.4186
    673 P          39.4870   -0.2470   22.0530 P.3      22   G37       1.1662
    674 OP1        38.4170    0.0020   23.0640 O.co2    22   G37      -0.7760
    675 OP2        39.4720   -1.5230   21.3220 O.co2    22   G37      -0.7760
    676 O5'        39.5210    0.8980   20.9350 O.3      22   G37      -0.4989
    677 C5'        39.4390    2.3060   21.1740 C.3      22   G37       0.0558
    678 C4'        39.4520    3.0550   19.8510 C.3      22   G37       0.1065
    679 O4'        40.6930    2.8100   19.1530 O.3      22   G37      -0.3548
    680 C3'        38.4170    2.5190   18.8900 C.3      22   G37       0.2022
    681 O3'        37.1460    3.0610   19.1830 O.3      22   G37      -0.5246
    682 C2'        38.9240    2.9930   17.5360 C.3      22   G37       0.0670
    683 O2'        38.7240    4.3770   17.3560 O.3      22   G37      -0.6139
    684 C1'        40.4200    2.6970   17.7560 C.3      22   G37       0.0191
    685 N9         40.8100    1.3430   17.3920 N.ar     22   G37       0.0492
    686 C8         40.7670    0.2240   18.1800 C.ar     22   G37       0.1374
    687 N7         41.1790   -0.8700   17.6200 N.ar     22   G37      -0.5709
    688 C5         41.5790   -0.4360   16.3530 C.ar     22   G37       0.1744
    689 C6         42.1340   -1.1910   15.2770 C.2      22   G37       0.4770
    690 O6         42.4090   -2.3930   15.2380 O.2      22   G37      -0.5597
    691 N1         42.4050   -0.3710   14.1650 N.am     22   G37      -0.4787
    692 C2         42.1430    0.9840   14.1170 C.2      22   G37       0.7657
    693 N2         42.4370    1.6250   12.9690 N.pl3    22   G37      -0.9672
    694 N3         41.6160    1.6920   15.1170 N.2      22   G37      -0.6323
    695 C4         41.3520    0.9130   16.1950 C.ar     22   G37       0.1222
    696 H5'        38.5147    2.5291   21.7069 H        22   G37       0.0679
    697 H5''       40.2903    2.6213   21.7773 H        22   G37       0.0679
    698 H4'        39.3078    4.1231   20.0135 H        22   G37       0.1174
    699 H3'        38.3869    1.4301   18.9278 H        22   G37       0.0615
    700 H2'        38.5074    2.4089   16.7154 H        22   G37       0.0972
    701 H1'        41.0238    3.4163   17.2027 H        22   G37       0.2006
    702 H8         40.4134    0.2511   19.2001 H        22   G37       0.1640
    703 H1         42.8176   -0.8016   13.3499 H        22   G37       0.3424
    704 H21        42.8341    1.1147   12.1931 H        22   G37       0.4364
    705 H22        42.2603    2.6158   12.8843 H        22   G37       0.4364
    706 HO2'       39.0566    4.6395   16.4946 H        22   G37       0.4186
    707 P          35.7680    2.3060   18.8520 P.3      23   G38       1.1662
    708 OP1        34.6470    3.1340   19.3820 O.co2    23   G38      -0.7760
    709 OP2        35.9140    0.8990   19.2550 O.co2    23   G38      -0.7760
    710 O5'        35.7230    2.3660   17.2420 O.3      23   G38      -0.4989
    711 C5'        35.3670    3.5940   16.5570 C.3      23   G38       0.0558
    712 C4'        35.6220    3.3520   15.0780 C.3      23   G38       0.1065
    713 O4'        37.0180    2.9850   14.9500 O.3      23   G38      -0.3548
    714 C3'        34.9130    2.1620   14.4940 C.3      23   G38       0.2022
    715 O3'        33.5640    2.5230   14.1270 O.3      23   G38      -0.5246
    716 C2'        35.7720    1.8150   13.2800 C.3      23   G38       0.0670
    717 O2'        35.5250    2.5770   12.0980 O.3      23   G38      -0.6139
    718 C1'        37.1840    2.0750   13.8680 C.3      23   G38       0.0191
    719 N9         37.7220    0.7740   14.3170 N.ar     23   G38       0.0492
    720 C8         37.4520    0.1300   15.5150 C.ar     23   G38       0.1374
    721 N7         38.0070   -1.0560   15.6180 N.ar     23   G38      -0.5709
    722 C5         38.6760   -1.2260   14.4140 C.ar     23   G38       0.1744
    723 C6         39.4410   -2.3390   13.9620 C.2      23   G38       0.4770
    724 O6         39.6680   -3.4130   14.5340 O.2      23   G38      -0.5597
    725 N1         39.9610   -2.1320   12.6760 N.am     23   G38      -0.4787
    726 C2         39.7590   -0.9810   11.9590 C.2      23   G38       0.7657
    727 N2         40.2980   -0.9380   10.7300 N.pl3    23   G38      -0.9672
    728 N3         39.0450    0.0560   12.3540 N.2      23   G38      -0.6323
    729 C4         38.5220   -0.1120   13.6170 C.ar     23   G38       0.1222
    730 H5'        34.3155    3.8274   16.7245 H        23   G38       0.0679
    731 H5''       35.9915    4.4133   16.9132 H        23   G38       0.0679
    732 H4'        35.4062    4.2500   14.4990 H        23   G38       0.1174
    733 H3'        34.9064    1.3357   15.2048 H        23   G38       0.0615
    734 H2'        35.6652    0.7540   13.0540 H        23   G38       0.0972
    735 H1'        37.8339    2.5087   13.1080 H        23   G38       0.2006
    736 H8         36.8410    0.5641   16.2926 H        23   G38       0.1640
    737 H1         40.5119   -2.8677   12.2571 H        23   G38       0.3424
    738 H21        40.8354   -1.7211   10.3865 H        23   G38       0.4364
    739 H22        40.1660   -0.1225   10.1490 H        23   G38       0.4364
    740 HO2'       34.7416    2.2393   11.6577 H        23   G38       0.4186
    741 P          32.2850    1.7290   14.5540 P.3      24   C39       1.1662
    742 OP1        32.6960    0.5210   15.3010 O.co2    24   C39      -0.7760
    743 OP2        31.4060    1.6950   13.3720 O.co2    24   C39      -0.7760
    744 O5'        31.6740    2.6740   15.7050 O.3      24   C39      -0.4989
    745 C5'        30.7090    3.7000   15.3430 C.3      24   C39       0.0558
    746 C4'        31.0270    4.9730   16.1170 C.3      24   C39       0.1065
    747 O4'        32.3930    5.4240   15.8330 O.3      24   C39      -0.3548
    748 C3'        30.1550    6.1700   15.8090 C.3      24   C39       0.2022
    749 O3'        29.0600    6.0900   16.7300 O.3      24   C39      -0.5246
    750 C2'        31.0910    7.3310   16.1710 C.3      24   C39       0.0670
    751 O2'        31.2160    7.5250   17.5640 O.3      24   C39      -0.6139
    752 C1'        32.4220    6.8350   15.6520 C.3      24   C39       0.0066
    753 N1         32.6170    7.2100   14.2100 N.am     24   C39      -0.0484
    754 C2         32.6930    8.5700   13.8990 C.2      24   C39       0.7538
    755 O2         32.6200    9.3770   14.8200 O.2      24   C39      -0.6252
    756 N3         32.8950    8.9410   12.6130 N.2      24   C39      -0.7584
    757 C4         32.9630    8.0170   11.6590 C.2      24   C39       0.8185
    758 N4         33.1550    8.4470   10.4140 N.pl3    24   C39      -0.9530
    759 C5         32.9000    6.6240   11.9440 C.2      24   C39      -0.5215
    760 C6         32.7060    6.2580   13.2230 C.2      24   C39       0.0053
    761 H5'        30.7699    3.8979   14.2729 H        24   C39       0.0679
    762 H5''       29.7041    3.3611   15.5949 H        24   C39       0.0679
    763 H4'        30.9505    4.7563   17.1825 H        24   C39       0.1174
    764 H3'        29.8301    6.1987   14.7689 H        24   C39       0.0615
    765 H2'        30.7903    8.2511   15.6700 H        24   C39       0.0972
    766 H1'        33.2270    7.2616   16.2504 H        24   C39       0.2029
    767 H5         33.0043    5.8875   11.1610 H        24   C39       0.1928
    768 H6         32.6198    5.2115   13.4758 H        24   C39       0.1958
    769 H41        33.2357    7.7831    9.6571 H        24   C39       0.4234
    770 H42        33.2200    9.4373   10.2262 H        24   C39       0.4234
    771 HO2'       31.4478    6.6931   17.9832 H        24   C39       0.4186
    772 P          27.6700    6.7940   16.3780 P.3      25   A40       1.1662
    773 OP1        26.7780    6.4460   17.5380 O.co2    25   A40      -0.7760
    774 OP2        27.2910    6.5300   14.9880 O.co2    25   A40      -0.7760
    775 O5'        28.0200    8.3510   16.5280 O.3      25   A40      -0.4989
    776 C5'        28.2040    8.9530   17.7940 C.3      25   A40       0.0558
    777 C4'        28.1950   10.4620   17.5980 C.3      25   A40       0.1065
    778 O4'        29.4010   10.8910   16.9140 O.3      25   A40      -0.3548
    779 C3'        27.0940   10.9870   16.7000 C.3      25   A40       0.2022
    780 O3'        25.8600   11.1100   17.3640 O.3      25   A40      -0.5246
    781 C2'        27.6570   12.3630   16.3200 C.3      25   A40       0.0670
    782 O2'        27.6330   13.3120   17.3830 O.3      25   A40      -0.6139
    783 C1'        29.0970   11.9540   16.0230 C.3      25   A40       0.0394
    784 N9         29.3090   11.4860   14.6490 N.ar     25   A40      -0.0251
    785 C8         29.3640   10.1800   14.2030 C.ar     25   A40       0.2006
    786 N7         29.6140   10.0680   12.9110 N.ar     25   A40      -0.6073
    787 C5         29.7080   11.3930   12.4830 C.ar     25   A40       0.0515
    788 C6         29.9740   11.9990   11.2260 C.ar     25   A40       0.7009
    789 N6         30.1700   11.3320   10.0770 N.pl3    25   A40      -0.9019
    790 N1         29.9860   13.3550   11.1800 N.ar     25   A40      -0.7615
    791 C2         29.7980   14.0830   12.2920 C.ar     25   A40       0.5875
    792 N3         29.5700   13.6220   13.5160 N.ar     25   A40      -0.6997
    793 C4         29.5420   12.2700   13.5400 C.ar     25   A40       0.3053
    794 H5'        29.1582    8.6401   18.2179 H        25   A40       0.0679
    795 H5''       27.3920    8.6634   18.4610 H        25   A40       0.0679
    796 H4'        28.1353   10.9531   18.5693 H        25   A40       0.1174
    797 H3'        26.9907   10.3589   15.8152 H        25   A40       0.0615
    798 H2'        27.1675   12.7567   15.4292 H        25   A40       0.0972
    799 H1'        29.7603   12.7951   16.2245 H        25   A40       0.2007
    800 H8         29.2162    9.3288   14.8511 H        25   A40       0.1553
    801 H2         29.8362   15.1564   12.1792 H        25   A40       0.0473
    802 HO2'       27.0353   14.0291   17.1590 H        25   A40       0.4186
    803 H61        30.5124   11.9374    9.3446 H        25   A40       0.4115
    804 H62        29.9960   10.3441    9.9594 H        25   A40       0.4115
    805 P          24.4540   11.0550   16.6230 P.3      26   C41       1.1662
    806 OP1        23.4600   11.0490   17.7410 O.co2    26   C41      -0.7760
    807 OP2        24.4230    9.9330   15.6510 O.co2    26   C41      -0.7760
    808 O5'        24.3160   12.3960   15.7720 O.3      26   C41      -0.4989
    809 C5'        24.3260   13.6530   16.4500 C.3      26   C41       0.0558
    810 C4'        24.5290   14.7690   15.4440 C.3      26   C41       0.1065
    811 O4'        25.8480   14.6580   14.8840 O.3      26   C41      -0.3548
    812 C3'        23.6660   14.7410   14.1980 C.3      26   C41       0.2022
    813 O3'        22.3730   15.1850   14.4330 O.3      26   C41      -0.5246
    814 C2'        24.4410   15.6800   13.2740 C.3      26   C41       0.0670
    815 O2'        24.4110   17.0340   13.7090 O.3      26   C41      -0.6139
    816 C1'        25.8340   15.1230   13.5370 C.3      26   C41       0.0066
    817 N1         26.1230   14.0170   12.5700 N.am     26   C41      -0.0484
    818 C2         26.4690   14.3590   11.2550 C.2      26   C41       0.7538
    819 O2         26.5450   15.5580   10.9320 O.2      26   C41      -0.6252
    820 N3         26.7170   13.3630   10.3850 N.2      26   C41      -0.7584
    821 C4         26.6490   12.0780   10.7560 C.2      26   C41       0.8185
    822 N4         26.8850   11.1270    9.8600 N.pl3    26   C41      -0.9530
    823 C5         26.2540   11.7010   12.0690 C.2      26   C41      -0.5215
    824 C6         26.0200   12.6950   12.9450 C.2      26   C41       0.0053
    825 H5'        23.3754   13.7959   16.9639 H        26   C41       0.0679
    826 H5''       25.1379   13.6672   17.1771 H        26   C41       0.0679
    827 H4'        24.4226   15.7332   15.9410 H        26   C41       0.1174
    828 H3'        23.6462   13.7351   13.7787 H        26   C41       0.0615
    829 H2'        24.1428   15.5736   12.2310 H        26   C41       0.0972
    830 H1'        26.5727   15.9154   13.4167 H        26   C41       0.2029
    831 H5         26.1467   10.6638   12.3503 H        26   C41       0.1928
    832 H6         25.7463   12.4522   13.9612 H        26   C41       0.1958
    833 H41        27.1401   11.3755    8.9149 H        26   C41       0.4234
    834 H42        26.8094   10.1549   10.1236 H        26   C41       0.4234
    835 HO2'       23.5387   17.4022   13.5507 H        26   C41       0.4186
    836 P          21.1440   14.5680   13.6140 P.3      27   G42       1.1662
    837 OP1        19.8760   15.0260   14.2590 O.co2    27   G42      -0.7760
    838 OP2        21.3750   13.1010   13.4900 O.co2    27   G42      -0.7760
    839 O5'        21.3110   15.1480   12.1610 O.3      27   G42      -0.4989
    840 C5'        21.1470   16.5610   11.9670 C.3      27   G42       0.0558
    841 C4'        21.5810   17.0300   10.5920 C.3      27   G42       0.1065
    842 O4'        22.9450   16.6010   10.3750 O.3      27   G42      -0.3548
    843 C3'        20.8160   16.4230    9.4340 C.3      27   G42       0.2022
    844 O3'        19.5600   17.0900    9.3030 O.3      27   G42      -0.5246
    845 C2'        21.7800   16.7380    8.3090 C.3      27   G42       0.0670
    846 O2'        21.7560   18.1170    7.9960 O.3      27   G42      -0.6139
    847 C1'        23.0950   16.3550    8.9840 C.3      27   G42       0.0191
    848 N9         23.4680   14.9460    8.7850 N.ar     27   G42       0.0492
    849 C8         23.3620   13.9070    9.6740 C.ar     27   G42       0.1374
    850 N7         23.7600   12.7710    9.1850 N.ar     27   G42      -0.5709
    851 C5         24.1890   13.0700    7.9030 C.ar     27   G42       0.1744
    852 C6         24.7360   12.2380    6.8850 C.2      27   G42       0.4770
    853 O6         24.9950   11.0220    6.9360 O.2      27   G42      -0.5597
    854 N1         25.0090   12.9650    5.7330 N.am     27   G42      -0.4787
    855 C2         24.7670   14.3220    5.5540 C.2      27   G42       0.7657
    856 N2         25.0680   14.8620    4.3660 N.pl3    27   G42      -0.9672
    857 N3         24.2640   15.1080    6.5070 N.2      27   G42      -0.6323
    858 C4         23.9940   14.4120    7.6360 C.ar     27   G42       0.1222
    859 H5'        20.0941   16.8089   12.1010 H        27   G42       0.0679
    860 H5''       21.7316   17.0897   12.7199 H        27   G42       0.0679
    861 H4'        21.5250   18.1173   10.5399 H        27   G42       0.1174
    862 H3'        20.6865   15.3481    9.5602 H        27   G42       0.0615
    863 H2'        21.5859   16.1233    7.4300 H        27   G42       0.0972
    864 H1'        23.8909   16.9905    8.5956 H        27   G42       0.2006
    865 H8         22.9854   14.0217   10.6797 H        27   G42       0.1640
    866 H1         25.4191   12.4638    4.9580 H        27   G42       0.3424
    867 H21        25.4541   14.2851    3.6323 H        27   G42       0.4364
    868 H22        24.9089   15.8461    4.2037 H        27   G42       0.4364
    869 HO2'       22.3728   18.2943    7.2821 H        27   G42       0.4186
    870 P          18.3310   16.3870    8.5320 P.3      28   C43       1.1662
    871 OP1        17.1670   17.2940    8.6440 O.co2    28   C43      -0.7760
    872 OP2        18.2410   14.9560    8.8930 O.co2    28   C43      -0.7760
    873 O5'        18.8360   16.4460    7.0150 O.3      28   C43      -0.4989
    874 C5'        18.9120   17.6730    6.3020 C.3      28   C43       0.0558
    875 C4'        19.4120   17.4500    4.8860 C.3      28   C43       0.1065
    876 O4'        20.7620   16.9220    4.8440 O.3      28   C43      -0.3548
    877 C3'        18.6160   16.4400    4.0760 C.3      28   C43       0.2022
    878 O3'        17.3900   17.0260    3.6740 O.3      28   C43      -0.5246
    879 C2'        19.6040   16.1060    2.9620 C.3      28   C43       0.0670
    880 O2'        19.7690   17.1290    1.9990 O.3      28   C43      -0.6139
    881 C1'        20.8930   16.0070    3.7710 C.3      28   C43       0.0066
    882 N1         21.1910   14.6250    4.2880 N.am     28   C43      -0.0484
    883 C2         21.9130   13.6970    3.4940 C.2      28   C43       0.7538
    884 O2         22.3240   13.9890    2.3480 O.2      28   C43      -0.6252
    885 N3         22.1540   12.4630    4.0100 N.2      28   C43      -0.7584
    886 C4         21.7130   12.1550    5.2370 C.2      28   C43       0.8185
    887 N4         21.9650   10.9370    5.7020 N.pl3    28   C43      -0.9530
    888 C5         20.9820   13.0660    6.0480 C.2      28   C43      -0.5215
    889 C6         20.7530   14.2740    5.5370 C.2      28   C43       0.0053
    890 H5'        19.5970   18.3442    6.8201 H        28   C43       0.0679
    891 H5''       17.9224   18.1285    6.2654 H        28   C43       0.0679
    892 H4'        19.3973   18.4043    4.3596 H        28   C43       0.1174
    893 H3'        18.4225   15.5522    4.6780 H        28   C43       0.0615
    894 H2'        19.3599   15.1544    2.4897 H        28   C43       0.0972
    895 H1'        21.7229   16.3278    3.1413 H        28   C43       0.2029
    896 H5         20.6295   12.7913    7.0312 H        28   C43       0.1928
    897 H6         20.2065   14.9973    6.1240 H        28   C43       0.1958
    898 H41        22.4790   10.2768    5.1363 H        28   C43       0.4234
    899 H42        21.6427   10.6708    6.6214 H        28   C43       0.4234
    900 HO2'       18.9677   17.2095    1.4765 H        28   C43       0.4186
    901 P          16.1320   16.0960    3.3350 P.3      29   A44       1.1662
    902 OP1        15.0530   16.9520    2.7930 O.co2    29   A44      -0.7760
    903 OP2        15.8640   15.1610    4.4570 O.co2    29   A44      -0.7760
    904 O5'        16.8160   15.3260    2.1250 O.3      29   A44      -0.4989
    905 C5'        16.3590   14.0770    1.7040 C.3      29   A44       0.0558
    906 C4'        17.1300   13.7100    0.4570 C.3      29   A44       0.1065
    907 O4'        18.5550   13.5990    0.7510 O.3      29   A44      -0.3548
    908 C3'        16.7250   12.3500   -0.0710 C.3      29   A44       0.2022
    909 O3'        15.5150   12.4420   -0.8610 O.3      29   A44      -0.5246
    910 C2'        17.9840   11.9560   -0.8360 C.3      29   A44       0.0670
    911 O2'        18.0790   12.5350   -2.1130 O.3      29   A44      -0.6139
    912 C1'        19.0910   12.4690    0.0980 C.3      29   A44       0.0394
    913 N9         19.4420   11.4230    1.0610 N.ar     29   A44      -0.0251
    914 C8         19.2230   11.3810    2.4100 C.ar     29   A44       0.2006
    915 N7         19.6430   10.2660    2.9730 N.ar     29   A44      -0.6073
    916 C5         20.1600    9.5260    1.9200 C.ar     29   A44       0.0515
    917 C6         20.7530    8.2480    1.8350 C.ar     29   A44       0.7009
    918 N6         20.9450    7.4500    2.8900 N.pl3    29   A44      -0.9019
    919 N1         21.1540    7.8100    0.6250 N.ar     29   A44      -0.7615
    920 C2         20.9850    8.5960   -0.4490 C.ar     29   A44       0.5875
    921 N3         20.4340    9.8180   -0.4920 N.ar     29   A44      -0.6997
    922 C4         20.0440   10.2240    0.7360 C.ar     29   A44       0.3053
    923 H5'        16.5346   13.3345    2.4824 H        29   A44       0.0679
    924 H5''       15.2941   14.1303    1.4777 H        29   A44       0.0679
    925 H4'        16.9699   14.4664   -0.3114 H        29   A44       0.1174
    926 H3'        16.5699   11.6633    0.7612 H        29   A44       0.0615
    927 H2'        18.0426   10.8706   -0.9171 H        29   A44       0.0972
    928 H1'        19.9687   12.7533   -0.4825 H        29   A44       0.2007
    929 H8         18.7523   12.1825    2.9599 H        29   A44       0.1553
    930 H2         21.3339    8.1976   -1.3902 H        29   A44       0.0473
    931 H61        21.4346    6.5830    2.7204 H        29   A44       0.4115
    932 H62        20.6166    7.7016    3.8114 H        29   A44       0.4115
    933 HO2'       18.9295   12.3163   -2.5008 H        29   A44       0.4186
    934 P          14.4040   11.2970   -0.7590 P.3      30   A45       1.1662
    935 OP1        13.2610   11.7700   -1.5900 O.co2    30   A45      -0.7760
    936 OP2        14.1680   10.8440    0.6310 O.co2    30   A45      -0.7760
    937 O5'        15.1360   10.0740   -1.4650 O.3      30   A45      -0.4989
    938 C5'        15.6590   10.1560   -2.7720 C.3      30   A45       0.0558
    939 C4'        16.4150    8.8730   -3.0170 C.3      30   A45       0.1065
    940 O4'        17.5220    8.7780   -2.0820 O.3      30   A45      -0.3548
    941 C3'        15.6190    7.6110   -2.7270 C.3      30   A45       0.2022
    942 O3'        14.7000    7.3270   -3.7930 O.3      30   A45      -0.5246
    943 C2'        16.7520    6.6060   -2.6420 C.3      30   A45       0.0670
    944 O2'        17.2590    6.2950   -3.9230 O.3      30   A45      -0.6139
    945 C1'        17.7740    7.4010   -1.8340 C.3      30   A45       0.0394
    946 N9         17.7100    7.1810   -0.3890 N.ar     30   A45      -0.0251
    947 C8         17.2540    8.0550    0.5550 C.ar     30   A45       0.2006
    948 N7         17.3200    7.5940    1.7850 N.ar     30   A45      -0.6073
    949 C5         17.8620    6.3320    1.6400 C.ar     30   A45       0.0515
    950 C6         18.1930    5.3240    2.5800 C.ar     30   A45       0.7009
    951 N6         18.0260    5.4460    3.9010 N.pl3    30   A45      -0.9019
    952 N1         18.7000    4.1800    2.0880 N.ar     30   A45      -0.7615
    953 C2         18.8950    4.0430    0.7650 C.ar     30   A45       0.5875
    954 N3         18.6290    4.9230   -0.2160 N.ar     30   A45      -0.6997
    955 C4         18.1060    6.0560    0.3010 C.ar     30   A45       0.3053
    956 H5'        14.8496   10.2590   -3.4947 H        30   A45       0.0679
    957 H5''       16.3361   11.0067   -2.8486 H        30   A45       0.0679
    958 H4'        16.7890    8.8506   -4.0406 H        30   A45       0.1174
    959 H3'        15.0968    7.6906   -1.7736 H        30   A45       0.0615
    960 H2'        16.4424    5.7060   -2.1107 H        30   A45       0.0972
    961 H1'        18.7753    7.1541   -2.1868 H        30   A45       0.2007
    962 H8         16.8734    9.0365    0.3137 H        30   A45       0.1553
    963 H2         19.3213    3.1025    0.4486 H        30   A45       0.0473
    964 H61        18.6625    4.7472    4.2568 H        30   A45       0.4115
    965 H62        17.4207    6.0737    4.4106 H        30   A45       0.4115
    966 HO2'       16.6028    5.7959   -4.4148 H        30   A45       0.4186
    967 P          13.2610    6.6690   -3.5440 P.3      31   G46       1.1662
    968 OP1        12.6840    6.5520   -4.9150 O.co2    31   G46      -0.7760
    969 OP2        12.5290    7.3560   -2.4600 O.co2    31   G46      -0.7760
    970 O5'        13.5910    5.2010   -2.9840 O.3      31   G46      -0.4989
    971 C5'        14.3240    4.2570   -3.7910 C.3      31   G46       0.0558
    972 C4'        14.7140    3.0400   -2.9740 C.3      31   G46       0.1065
    973 O4'        15.6210    3.4310   -1.9090 O.3      31   G46      -0.3548
    974 C3'        13.5630    2.3660   -2.2380 C.3      31   G46       0.2022
    975 O3'        12.9210    1.4740   -3.1300 O.3      31   G46      -0.5246
    976 C2'        14.3030    1.6320   -1.1190 C.3      31   G46       0.0670
    977 O2'        14.9890    0.4840   -1.5810 O.3      31   G46      -0.6139
    978 C1'        15.3490    2.6710   -0.7470 C.3      31   G46       0.0191
    979 N9         15.0000    3.5870    0.3360 N.ar     31   G46       0.0492
    980 C8         14.3990    4.8230    0.2400 C.ar     31   G46       0.1374
    981 N7         14.2400    5.4150    1.3910 N.ar     31   G46      -0.5709
    982 C5         14.7910    4.5190    2.3130 C.ar     31   G46       0.1744
    983 C6         14.9270    4.6070    3.7310 C.2      31   G46       0.4770
    984 O6         14.5630    5.5330    4.4670 O.2      31   G46      -0.5597
    985 N1         15.5430    3.4710    4.2830 N.am     31   G46      -0.4787
    986 C2         15.9830    2.3900    3.5530 C.2      31   G46       0.7657
    987 N2         16.5560    1.3820    4.2420 N.pl3    31   G46      -0.9672
    988 N3         15.8660    2.3050    2.2250 N.2      31   G46      -0.6323
    989 C4         15.2670    3.3900    1.6740 C.ar     31   G46       0.1222
    990 H5'        15.2261    4.7364   -4.1710 H        31   G46       0.0679
    991 H5''       13.7031    3.9429   -4.6300 H        31   G46       0.0679
    992 H4'        15.2060    2.3128   -3.6199 H        31   G46       0.1174
    993 H3'        12.8634    3.0996   -1.8374 H        31   G46       0.0615
    994 H2'        13.6450    1.4013   -0.2812 H        31   G46       0.0972
    995 H1'        16.2617    2.1461   -0.4650 H        31   G46       0.2006
    996 H8         14.0894    5.2595   -0.6981 H        31   G46       0.1640
    997 H1         15.6718    3.4459    5.2844 H        31   G46       0.3424
    998 H21        16.6455    1.4436    5.2461 H        31   G46       0.4364
    999 H22        16.8955    0.5656    3.7538 H        31   G46       0.4364
   1000 HO2'       14.3527   -0.1895   -1.8324 H        31   G46       0.4186
   1001 P          11.3690    1.6580   -3.5520 P.3      32   U47       1.1662
   1002 OP1        11.1930    0.8840   -4.8040 O.co2    32   U47      -0.7760
   1003 OP2        11.0540    3.1000   -3.4900 O.co2    32   U47      -0.7760
   1004 O5'        10.5950    0.9510   -2.3690 O.3      32   U47      -0.4989
   1005 C5'        10.5850   -0.4650   -2.2800 C.3      32   U47       0.0558
   1006 C4'         9.6560   -0.8740   -1.1560 C.3      32   U47       0.1065
   1007 O4'        10.1470   -0.2850    0.0750 O.3      32   U47      -0.3548
   1008 C3'         8.2090   -0.3950   -1.2970 C.3      32   U47       0.2022
   1009 O3'         7.3470   -1.3970   -0.8130 O.3      32   U47      -0.5246
   1010 C2'         8.1380    0.8270   -0.3840 C.3      32   U47       0.0670
   1011 O2'         6.8290    1.1170    0.0910 O.3      32   U47      -0.6139
   1012 C1'         9.0710    0.3540    0.7380 C.3      32   U47       0.0674
   1013 N1          9.6250    1.4460    1.5820 N.am     32   U47       0.0418
   1014 C2          9.5090    1.3890    2.9610 C.2      32   U47       0.4687
   1015 O2          8.9750    0.4770    3.5780 O.2      32   U47      -0.5477
   1016 N3         10.0630    2.4650    3.6240 N.am     32   U47      -0.3549
   1017 C4         10.7010    3.5600    3.0440 C.2      32   U47       0.5952
   1018 O4         11.1470    4.4680    3.7460 O.2      32   U47      -0.5761
   1019 C5         10.7820    3.5350    1.6060 C.2      32   U47      -0.3635
   1020 C6         10.2530    2.4990    0.9420 C.2      32   U47      -0.1126
   1021 H5'        10.2321   -0.8890   -3.2201 H        32   U47       0.0679
   1022 H5''       11.5923   -0.8255   -2.0714 H        32   U47       0.0679
   1023 H4'         9.6656   -1.9599   -1.0615 H        32   U47       0.1174
   1024 H3'         7.9754   -0.1342   -2.3292 H        32   U47       0.0615
   1025 H2'         8.5602    1.6982   -0.8848 H        32   U47       0.0972
   1026 H1'         8.5496   -0.3667    1.3680 H        32   U47       0.1824
   1027 H3          9.9997    2.4583    4.6320 H        32   U47       0.3154
   1028 H5         11.2626    4.3405    1.0707 H        32   U47       0.1811
   1029 H6         10.3195    2.4854   -0.1359 H        32   U47       0.2188
   1030 HO2'        6.4031    1.7394   -0.5030 H        32   U47       0.4186
   1031 P           6.5640   -2.3680   -1.8180 P.3      33   U48       1.1662
   1032 OP1         5.8890   -3.3620   -0.9670 O.co2    33   U48      -0.7760
   1033 OP2         7.4240   -2.7940   -2.9430 O.co2    33   U48      -0.7760
   1034 O5'         5.4800   -1.3740   -2.4700 O.3      33   U48      -0.4989
   1035 C5'         4.5480   -0.6980   -1.6610 C.3      33   U48       0.0558
   1036 C4'         3.9040    0.4190   -2.4550 C.3      33   U48       0.1065
   1037 O4'         3.0400   -0.1320   -3.4820 O.3      33   U48      -0.3548
   1038 C3'         3.0480    1.3510   -1.6120 C.3      33   U48       0.2022
   1039 O3'         3.3140    2.7040   -1.9730 O.3      33   U48      -0.5246
   1040 C2'         1.6160    0.9430   -1.9570 C.3      33   U48       0.0670
   1041 O2'         0.6620    1.9870   -1.8580 O.3      33   U48      -0.6139
   1042 C1'         1.7730    0.4880   -3.4010 C.3      33   U48       0.0674
   1043 N1          0.7210   -0.4860   -3.8090 N.am     33   U48       0.0418
   1044 C2         -0.2060   -0.1030   -4.7650 C.2      33   U48       0.4687
   1045 O2         -0.2050    0.9890   -5.3130 O.2      33   U48      -0.5477
   1046 N3         -1.1400   -1.0660   -5.0660 N.am     33   U48      -0.3549
   1047 C4         -1.2460   -2.3320   -4.5120 C.2      33   U48       0.5952
   1048 O4         -2.1420   -3.0730   -4.8960 O.2      33   U48      -0.5761
   1049 C5         -0.2500   -2.6660   -3.5180 C.2      33   U48      -0.3635
   1050 C6          0.6700   -1.7390   -3.2130 C.2      33   U48      -0.1126
   1051 H5'         3.7802   -1.3973   -1.3300 H        33   U48       0.0679
   1052 H5''        5.0569   -0.2797   -0.7926 H        33   U48       0.0679
   1053 H4'         4.6886    1.0038   -2.9351 H        33   U48       0.1174
   1054 H3'         3.2442    1.1938   -0.5514 H        33   U48       0.0615
   1055 H2'         1.3104    0.1018   -1.3348 H        33   U48       0.0972
   1056 H1'         1.7464    1.3539   -4.0625 H        33   U48       0.1824
   1057 H3         -1.8244   -0.8242   -5.7683 H        33   U48       0.3154
   1058 H5         -0.2472   -3.6325   -3.0360 H        33   U48       0.1811
   1059 H6          1.4102   -1.9799   -2.4643 H        33   U48       0.2188
   1060 HO2'        0.5783    2.2587   -0.9411 H        33   U48       0.4186
   1061 P           4.4930    3.5480   -1.2810 P.3      34   U49       1.1662
   1062 OP1         4.1640    4.9820   -1.4550 O.co2    34   U49      -0.7760
   1063 OP2         5.7510    2.9930   -1.8230 O.co2    34   U49      -0.7760
   1064 O5'         4.3850    3.1810    0.2690 O.3      34   U49      -0.4989
   1065 C5'         3.3480    3.6980    1.1050 C.3      34   U49       0.0558
   1066 C4'         3.7010    3.4510    2.5600 C.3      34   U49       0.1065
   1067 O4'         3.5870    2.0380    2.8920 O.3      34   U49      -0.3548
   1068 C3'         5.1300    3.8480    2.9240 C.3      34   U49       0.2022
   1069 O3'         5.0740    4.6180    4.1150 O.3      34   U49      -0.5246
   1070 C2'         5.8440    2.5110    3.1250 C.3      34   U49       0.0670
   1071 O2'         6.8630    2.5710    4.0970 O.3      34   U49      -0.6139
   1072 C1'         4.7130    1.6690    3.6780 C.3      34   U49       0.0674
   1073 N1          4.8780    0.1840    3.6000 N.am     34   U49       0.0418
   1074 C2          4.4820   -0.5780    4.6820 C.2      34   U49       0.4687
   1075 O2          4.0030   -0.1090    5.7070 O.2      34   U49      -0.5477
   1076 N3          4.6480   -1.9300    4.5240 N.am     34   U49      -0.3549
   1077 C4          5.1640   -2.5850    3.4180 C.2      34   U49       0.5952
   1078 O4          5.2500   -3.8130    3.4420 O.2      34   U49      -0.5761
   1079 C5          5.5670   -1.7310    2.3290 C.2      34   U49      -0.3635
   1080 C6          5.4050   -0.4040    2.4590 C.2      34   U49      -0.1126
   1081 H5'         2.4084    3.1983    0.8693 H        34   U49       0.0679
   1082 H5''        3.2429    4.7693    0.9333 H        34   U49       0.0679
   1083 H4'         3.0108    4.0145    3.1878 H        34   U49       0.1174
   1084 H3'         5.5918    4.4163    2.1166 H        34   U49       0.0615
   1085 H2'         6.2153    2.1108    2.1815 H        34   U49       0.0972
   1086 H1'         4.5319    1.9530    4.7146 H        34   U49       0.1824
   1087 H3          4.3628   -2.5118    5.2988 H        34   U49       0.3154
   1088 H5          5.9902   -2.1492    1.4277 H        34   U49       0.1811
   1089 H6          5.6981    0.2341    1.6385 H        34   U49       0.2188
   1090 HO2'        7.2076    3.4657    4.1452 H        34   U49       0.4186
   1091 P           6.1990    5.7250    4.4090 P.3      35   C50       1.1662
   1092 OP1         5.9920    6.8860    3.5160 O.co2    35   C50      -0.7760
   1093 OP2         7.5400    5.0950    4.4400 O.co2    35   C50      -0.7760
   1094 O5'         5.8690    6.0890    5.9170 O.3      35   C50      -0.4989
   1095 C5'         4.7750    6.9300    6.2720 C.3      35   C50       0.0558
   1096 C4'         4.5000    6.7330    7.7470 C.3      35   C50       0.1065
   1097 O4'         3.9400    5.4130    7.9500 O.3      35   C50      -0.3548
   1098 C3'         5.7420    6.7300    8.6390 C.3      35   C50       0.2022
   1099 O3'         6.0590    8.0390    9.0010 O.3      35   C50      -0.5246
   1100 C2'         5.2910    5.9150    9.8420 C.3      35   C50       0.0670
   1101 O2'         4.5350    6.6440   10.7970 O.3      35   C50      -0.6139
   1102 C1'         4.4410    4.8460    9.1550 C.3      35   C50       0.0066
   1103 N1          5.2140    3.5770    8.8690 N.am     35   C50      -0.0484
   1104 C2          5.6840    2.8110    9.9500 C.2      35   C50       0.7538
   1105 O2          5.4580    3.1920   11.1110 O.2      35   C50      -0.6252
   1106 N3          6.3790    1.6660    9.6870 N.2      35   C50      -0.7584
   1107 C4          6.6060    1.2860    8.4230 C.2      35   C50       0.8185
   1108 N4          7.2830    0.1440    8.2110 N.pl3    35   C50      -0.9530
   1109 C5          6.1380    2.0550    7.3090 C.2      35   C50      -0.5215
   1110 C6          5.4530    3.1780    7.5790 C.2      35   C50       0.0053
   1111 H5'         5.0303    7.9719    6.0784 H        35   C50       0.0679
   1112 H5''        3.8942    6.6528    5.6928 H        35   C50       0.0679
   1113 H4'         3.7971    7.4897    8.0956 H        35   C50       0.1174
   1114 H3'         6.5818    6.2505    8.1361 H        35   C50       0.0615
   1115 H2'         6.1530    5.4530   10.3233 H        35   C50       0.0972
   1116 H1'         3.5983    4.6022    9.8019 H        35   C50       0.2029
   1117 H5          6.3284    1.7441    6.2924 H        35   C50       0.1928
   1118 H6          5.0823    3.7799    6.7625 H        35   C50       0.1958
   1119 H41         7.6103   -0.4020    8.9951 H        35   C50       0.4234
   1120 H42         7.4643   -0.1679    7.2676 H        35   C50       0.4234
   1121 HO2'        5.0940    7.3059   11.2105 H        35   C50       0.4186
   1122 P           7.5550    8.5780    8.8500 P.3      36   U51       1.1662
   1123 OP1         7.5570    9.9450    9.4200 O.co2    36   U51      -0.7760
   1124 OP2         8.0380    8.3900    7.4630 O.co2    36   U51      -0.7760
   1125 O5'         8.3840    7.5930    9.8000 O.3      36   U51      -0.4989
   1126 C5'         8.3480    7.7510   11.2110 C.3      36   U51       0.0558
   1127 C4'         8.7900    6.4830   11.9080 C.3      36   U51       0.1065
   1128 O4'         8.1200    5.3340   11.3240 O.3      36   U51      -0.3548
   1129 C3'        10.2670    6.1500   11.7520 C.3      36   U51       0.2022
   1130 O3'        11.0520    6.9260   12.6500 O.3      36   U51      -0.5246
   1131 C2'        10.2600    4.6670   12.0950 C.3      36   U51       0.0670
   1132 O2'        10.1180    4.4190   13.4800 O.3      36   U51      -0.6139
   1133 C1'         8.9910    4.2220   11.3730 C.3      36   U51       0.0674
   1134 N1          9.2180    3.6410    9.9970 N.am     36   U51       0.0418
   1135 C2          9.7590    2.3700    9.9290 C.2      36   U51       0.4687
   1136 O2         10.0620    1.7350   10.9220 O.2      36   U51      -0.5477
   1137 N3          9.9410    1.8720    8.6530 N.am     36   U51      -0.3549
   1138 C4          9.6210    2.5170    7.4660 C.2      36   U51       0.5952
   1139 O4          9.8230    1.9510    6.3920 O.2      36   U51      -0.5761
   1140 C5          9.0570    3.8380    7.6180 C.2      36   U51      -0.3635
   1141 C6          8.8760    4.3390    8.8540 C.2      36   U51      -0.1126
   1142 H5'         9.0142    8.5654   11.4958 H        36   U51       0.0679
   1143 H5''        7.3312    7.9944   11.5192 H        36   U51       0.0679
   1144 H4'         8.5428    6.5468   12.9677 H        36   U51       0.1174
   1145 H3'        10.5908    6.3062   10.7230 H        36   U51       0.0615
   1146 H2'        11.1397    4.1648   11.6924 H        36   U51       0.0972
   1147 H1'         8.5146    3.4542   11.9826 H        36   U51       0.1824
   1148 H3         10.3459    0.9499    8.5765 H        36   U51       0.3154
   1149 H5          8.7834    4.4177    6.7488 H        36   U51       0.1811
   1150 H6          8.4468    5.3247    8.9567 H        36   U51       0.2188
   1151 HO2'       10.9384    4.0614   13.8273 H        36   U51       0.4186
   1152 P          12.5810    7.2520   12.2910 P.3      37   A52       1.1662
   1153 OP1        13.0380    8.1520   13.3740 O.co2    37   A52      -0.7760
   1154 OP2        12.7010    7.7080   10.8910 O.co2    37   A52      -0.7760
   1155 O5'        13.2960    5.8310   12.4610 O.3      37   A52      -0.4989
   1156 C5'        13.5070    5.2200   13.7340 C.3      37   A52       0.0558
   1157 C4'        14.0170    3.8000   13.5540 C.3      37   A52       0.1065
   1158 O4'        13.1540    3.0610   12.6470 O.3      37   A52      -0.3548
   1159 C3'        15.3830    3.7690   12.8880 C.3      37   A52       0.2022
   1160 O3'        16.3880    3.8030   13.8890 O.3      37   A52      -0.5246
   1161 C2'        15.3890    2.4720   12.0730 C.3      37   A52       0.0670
   1162 O2'        15.8030    1.3590   12.8400 O.3      37   A52      -0.6139
   1163 C1'        13.9130    2.3360   11.6840 C.3      37   A52       0.0394
   1164 N9         13.5660    2.7480   10.3050 N.ar     37   A52      -0.0251
   1165 C8         12.9810    3.9200    9.8930 C.ar     37   A52       0.2006
   1166 N7         12.7710    4.0030    8.5940 N.ar     37   A52      -0.6073
   1167 C5         13.2580    2.7980    8.1050 C.ar     37   A52       0.0515
   1168 C6         13.3310    2.2590    6.7970 C.ar     37   A52       0.7009
   1169 N6         12.8960    2.9090    5.7070 N.pl3    37   A52      -0.9019
   1170 N1         13.8700    1.0210    6.6500 N.ar     37   A52      -0.7615
   1171 C2         14.3070    0.3740    7.7530 C.ar     37   A52       0.5875
   1172 N3         14.2870    0.7810    9.0290 N.ar     37   A52      -0.6997
   1173 C4         13.7420    2.0080    9.1430 C.ar     37   A52       0.3053
   1174 H5'        14.2418    5.7985   14.2940 H        37   A52       0.0679
   1175 H5''       12.5669    5.1993   14.2853 H        37   A52       0.0679
   1176 H4'        14.0619    3.2954   14.5191 H        37   A52       0.1174
   1177 H3'        15.4917    4.6260   12.2232 H        37   A52       0.0615
   1178 H2'        16.0118    2.5794   11.1849 H        37   A52       0.0972
   1179 H1'        13.6461    1.2841   11.7854 H        37   A52       0.2007
   1180 H8         12.7142    4.7108   10.5784 H        37   A52       0.1553
   1181 H2         14.7302   -0.6049    7.5824 H        37   A52       0.0473
   1182 HO2'       16.7343    1.1888   12.6810 H        37   A52       0.4186
   1183 H61        13.1553    2.4377    4.8521 H        37   A52       0.4115
   1184 H62        12.3698    3.7705    5.7377 H        37   A52       0.4115
   1185 P          17.6510    4.7840   13.6830 P.3      38   C53       1.1662
   1186 OP1        18.4030    4.7610   14.9620 O.co2    38   C53      -0.7760
   1187 OP2        17.2060    6.0900   13.1490 O.co2    38   C53      -0.7760
   1188 O5'        18.5830    4.1190   12.5690 O.3      38   C53      -0.4989
   1189 C5'        19.1750    2.8440   12.8340 C.3      38   C53       0.0558
   1190 C4'        19.6120    2.1940   11.5280 C.3      38   C53       0.1065
   1191 O4'        18.4090    1.8840   10.7860 O.3      38   C53      -0.3548
   1192 C3'        20.4180    3.0510   10.5650 C.3      38   C53       0.2022
   1193 O3'        21.8090    3.0230   10.8600 O.3      38   C53      -0.5246
   1194 C2'        20.1280    2.3740    9.2320 C.3      38   C53       0.0670
   1195 O2'        20.9120    1.2180    9.0470 O.3      38   C53      -0.6139
   1196 C1'        18.6500    2.0150    9.3870 C.3      38   C53       0.0066
   1197 N1         17.7380    3.0570    8.7840 N.am     38   C53      -0.0484
   1198 C2         17.1200    2.8180    7.5470 C.2      38   C53       0.7538
   1199 O2         17.3140    1.7390    6.9680 O.2      38   C53      -0.6252
   1200 N3         16.3050    3.7890    7.0340 N.2      38   C53      -0.7584
   1201 C4         16.1060    4.9400    7.6890 C.2      38   C53       0.8185
   1202 N4         15.3040    5.8600    7.1410 N.pl3    38   C53      -0.9530
   1203 C5         16.7300    5.2060    8.9450 C.2      38   C53      -0.5215
   1204 C6         17.5170    4.2450    9.4440 C.2      38   C53       0.0053
   1205 H5'        20.0429    2.9759   13.4801 H        38   C53       0.0679
   1206 H5''       18.4471    2.2032   13.3317 H        38   C53       0.0679
   1207 H4'        20.1565    1.2743   11.7420 H        38   C53       0.1174
   1208 H3'        20.0476    4.0761   10.5625 H        38   C53       0.0615
   1209 H2'        20.2702    3.0718    8.4068 H        38   C53       0.0972
   1210 H1'        18.4641    1.0564    8.9027 H        38   C53       0.2029
   1211 H5         16.5746    6.1382    9.4678 H        38   C53       0.1928
   1212 H6         17.9957    4.4073   10.3984 H        38   C53       0.1958
   1213 H41        14.8611    5.6785    6.2516 H        38   C53       0.4234
   1214 H42        15.1414    6.7360    7.6167 H        38   C53       0.4234
   1215 HO2'       20.4026    0.4425    9.2934 H        38   C53       0.4186
   1216 P          22.4980    4.2310   11.6670 P.3      39   C54       1.1662
   1217 OP1        21.6260    5.4360   11.5540 O.co2    39   C54      -0.7760
   1218 OP2        23.8840    4.3320   11.1860 O.co2    39   C54      -0.7760
   1219 O5'        22.5140    3.7470   13.1780 O.3      39   C54      -0.4989
   1220 C5'        23.5090    2.8200   13.6210 C.3      39   C54       0.0558
   1221 C4'        22.9130    1.8900   14.6460 C.3      39   C54       0.1065
   1222 O4'        21.8910    1.0780   14.0020 O.3      39   C54      -0.3548
   1223 C3'        23.8930    0.9060   15.2650 C.3      39   C54       0.2022
   1224 O3'        24.5050    1.4820   16.4200 O.3      39   C54      -0.5246
   1225 C2'        22.9490   -0.2100   15.6740 C.3      39   C54       0.0670
   1226 O2'        22.2350    0.0520   16.8730 O.3      39   C54      -0.6139
   1227 C1'        21.9970   -0.2490   14.4680 C.3      39   C54       0.0066
   1228 N1         22.4400   -1.1990   13.3600 N.am     39   C54      -0.0484
   1229 C2         22.3350   -2.5530   13.6680 C.2      39   C54       0.7538
   1230 O2         21.8820   -2.8430   14.7820 O.2      39   C54      -0.6252
   1231 N3         22.6890   -3.4720   12.7300 N.2      39   C54      -0.7584
   1232 C4         23.1610   -3.0700   11.5370 C.2      39   C54       0.8185
   1233 N4         23.5090   -4.0010   10.6340 N.pl3    39   C54      -0.9530
   1234 C5         23.2980   -1.6690   11.2150 C.2      39   C54      -0.5215
   1235 C6         22.9270   -0.7920   12.1510 C.2      39   C54       0.0053
   1236 H5'        23.8685    2.2402   12.7709 H        39   C54       0.0679
   1237 H5''       24.3410    3.3657   14.0662 H        39   C54       0.0679
   1238 H4'        22.4525    2.4805   15.4381 H        39   C54       0.1174
   1239 H3'        24.6341    0.5645   14.5424 H        39   C54       0.0615
   1240 H2'        23.4918   -1.1517   15.7565 H        39   C54       0.0972
   1241 H1'        21.0151   -0.5673   14.8183 H        39   C54       0.2029
   1242 H5         23.6834   -1.3450   10.2596 H        39   C54       0.1928
   1243 H6         23.0142    0.2649   11.9469 H        39   C54       0.1958
   1244 H41        23.4139   -4.9814   10.8572 H        39   C54       0.4234
   1245 H42        23.8658   -3.7208    9.7316 H        39   C54       0.4234
   1246 HO2'       22.8469    0.0721   17.6125 H        39   C54       0.4186
   1247 P          25.9450    0.9970   16.9430 P.3      40   G55       1.1662
   1248 OP1        26.2830    1.9840   17.9980 O.co2    40   G55      -0.7760
   1249 OP2        26.8250    0.8240   15.7710 O.co2    40   G55      -0.7760
   1250 O5'        25.7100   -0.4300   17.5950 O.3      40   G55      -0.4989
   1251 C5'        25.1660   -0.5090   18.9140 C.3      40   G55       0.0558
   1252 C4'        25.1420   -1.9490   19.3800 C.3      40   G55       0.1065
   1253 O4'        24.3110   -2.7600   18.5140 O.3      40   G55      -0.3548
   1254 C3'        26.4710   -2.6770   19.3140 C.3      40   G55       0.2022
   1255 O3'        27.2600   -2.3410   20.4270 O.3      40   G55      -0.5246
   1256 C2'        26.0570   -4.1260   19.3670 C.3      40   G55       0.0670
   1257 O2'        25.4870   -4.4870   20.6160 O.3      40   G55      -0.6139
   1258 C1'        24.9280   -4.0420   18.3580 C.3      40   G55       0.0191
   1259 N9         25.2670   -4.2340   16.9380 N.ar     40   G55       0.0492
   1260 C8         25.4420   -3.2630   15.9920 C.ar     40   G55       0.1374
   1261 N7         25.6730   -3.7200   14.7940 N.ar     40   G55      -0.5709
   1262 C5         25.6160   -5.1080   14.9440 C.ar     40   G55       0.1744
   1263 C6         25.7370   -6.1570   13.9860 C.2      40   G55       0.4770
   1264 O6         25.9560   -6.0510   12.7590 O.2      40   G55      -0.5597
   1265 N1         25.6320   -7.4250   14.5820 N.am     40   G55      -0.4787
   1266 C2         25.3630   -7.6500   15.9160 C.2      40   G55       0.7657
   1267 N2         25.2540   -8.9210   16.3510 N.pl3    40   G55      -0.9672
   1268 N3         25.2230   -6.6700   16.8120 N.2      40   G55      -0.6323
   1269 C4         25.3460   -5.4390   16.2550 C.ar     40   G55       0.1222
   1270 H5'        24.1499   -0.1145   18.9092 H        40   G55       0.0679
   1271 H5''       25.7799    0.0812   19.5944 H        40   G55       0.0679
   1272 H4'        24.7552   -1.9935   20.3981 H        40   G55       0.1174
   1273 H3'        26.9929   -2.4537   18.3835 H        40   G55       0.0615
   1274 H2'        26.8519   -4.8033   19.0548 H        40   G55       0.0972
   1275 H1'        24.1897   -4.7979   18.6257 H        40   G55       0.2006
   1276 H8         25.3930   -2.2081   16.2181 H        40   G55       0.1640
   1277 H1         25.7633   -8.2322   13.9893 H        40   G55       0.3424
   1278 H21        25.3616   -9.6877   15.7024 H        40   G55       0.4364
   1279 H22        25.0647   -9.1067   17.3256 H        40   G55       0.4364
   1280 HO2'       26.1792   -4.5485   21.2783 H        40   G55       0.4186
   1281 P          28.8460   -2.2270   20.3080 P.3      41   G56       1.1662
   1282 OP1        29.2610   -1.5060   21.5300 O.co2    41   G56      -0.7760
   1283 OP2        29.1810   -1.7140   18.9760 O.co2    41   G56      -0.7760
   1284 O5'        29.3650   -3.7550   20.2790 O.3      41   G56      -0.4989
   1285 C5'        29.5220   -4.4900   21.4800 C.3      41   G56       0.0558
   1286 C4'        29.5610   -5.9680   21.1340 C.3      41   G56       0.1065
   1287 O4'        28.4170   -6.3050   20.3160 O.3      41   G56      -0.3548
   1288 C3'        30.7320   -6.4790   20.3130 C.3      41   G56       0.2022
   1289 O3'        31.8750   -6.6450   21.1580 O.3      41   G56      -0.5246
   1290 C2'        30.1540   -7.7930   19.7980 C.3      41   G56       0.0670
   1291 O2'        29.9730   -8.7350   20.8350 O.3      41   G56      -0.6139
   1292 C1'        28.7950   -7.2690   19.3440 C.3      41   G56       0.0191
   1293 N9         28.8270   -6.7060   17.9840 N.ar     41   G56       0.0492
   1294 C8         28.8600   -5.3710   17.6130 C.ar     41   G56       0.1374
   1295 N7         28.8970   -5.1960   16.3240 N.ar     41   G56      -0.5709
   1296 C5         28.8800   -6.4900   15.8090 C.ar     41   G56       0.1744
   1297 C6         28.9070   -6.9220   14.4520 C.2      41   G56       0.4770
   1298 O6         28.9560   -6.2380   13.4260 O.2      41   G56      -0.5597
   1299 N1         28.8810   -8.3210   14.3300 N.am     41   G56      -0.4787
   1300 C2         28.8470   -9.1860   15.4050 C.2      41   G56       0.7657
   1301 N2         28.8550  -10.4910   15.0830 N.pl3    41   G56      -0.9672
   1302 N3         28.8280   -8.8100   16.6770 N.2      41   G56      -0.6323
   1303 C4         28.8510   -7.4300   16.8110 C.ar     41   G56       0.1222
   1304 H5'        28.6831   -4.2898   22.1466 H        41   G56       0.0679
   1305 H5''       30.4540   -4.2025   21.9668 H        41   G56       0.0679
   1306 H4'        29.5081   -6.5427   22.0587 H        41   G56       0.1174
   1307 H3'        30.9534   -5.8018   19.4881 H        41   G56       0.0615
   1308 H2'        30.7344   -8.2003   18.9701 H        41   G56       0.0972
   1309 H1'        28.0777   -8.0894   19.3668 H        41   G56       0.2006
   1310 H8         28.8555   -4.5571   18.3229 H        41   G56       0.1640
   1311 H1         28.8876   -8.7173   13.4010 H        41   G56       0.3424
   1312 H21        28.8768  -10.7717   14.1130 H        41   G56       0.4364
   1313 H22        28.8392  -11.1909   15.8110 H        41   G56       0.4364
   1314 HO2'       30.8279   -9.0650   21.1210 H        41   G56       0.4186
   1315 P          33.2930   -6.7820   20.4940 P.3      42   G57       1.1662
   1316 OP1        34.1950   -6.7830   21.6660 O.co2    42   G57      -0.7760
   1317 OP2        33.5730   -5.7740   19.4130 O.co2    42   G57      -0.7760
   1318 O5'        33.2900   -8.1980   19.7790 O.3      42   G57      -0.4989
   1319 C5'        33.3350   -9.4240   20.4820 C.3      42   G57       0.0558
   1320 C4'        33.2820  -10.5590   19.4710 C.3      42   G57       0.1065
   1321 O4'        32.0800  -10.4600   18.6250 O.3      42   G57      -0.3548
   1322 C3'        34.4400  -10.7060   18.5130 C.3      42   G57       0.2022
   1323 O3'        35.5320  -11.3600   19.1190 O.3      42   G57      -0.5246
   1324 C2'        33.7850  -11.6240   17.4880 C.3      42   G57       0.0670
   1325 O2'        33.6290  -12.9730   17.8940 O.3      42   G57      -0.6139
   1326 C1'        32.4420  -10.9320   17.3410 C.3      42   G57       0.0191
   1327 N9         32.3570   -9.8240   16.3830 N.ar     42   G57       0.0492
   1328 C8         32.2470   -8.4920   16.6490 C.ar     42   G57       0.1374
   1329 N7         32.1470   -7.7500   15.5740 N.ar     42   G57      -0.5709
   1330 C5         32.1780   -8.6610   14.5280 C.ar     42   G57       0.1744
   1331 C6         32.1220   -8.4550   13.1120 C.2      42   G57       0.4770
   1332 O6         31.9880   -7.3760   12.5200 O.2      42   G57      -0.5597
   1333 N1         32.2150   -9.6470   12.4080 N.am     42   G57      -0.4787
   1334 C2         32.3460  -10.9080   12.9730 C.2      42   G57       0.7657
   1335 N2         32.4040  -11.9450   12.1260 N.pl3    42   G57      -0.9672
   1336 N3         32.3740  -11.1060   14.2980 N.2      42   G57      -0.6323
   1337 C4         32.3120   -9.9510   15.0030 C.ar     42   G57       0.1222
   1338 H5'        34.2595   -9.4854   21.0561 H        42   G57       0.0679
   1339 H5''       32.4803   -9.4923   21.1550 H        42   G57       0.0679
   1340 H4'        33.2066  -11.4899   20.0330 H        42   G57       0.1174
   1341 H3'        34.7300   -9.7504   18.0762 H        42   G57       0.0615
   1342 H2'        34.3315  -11.5798   16.5459 H        42   G57       0.0972
   1343 H1'        31.7109  -11.6843   17.0450 H        42   G57       0.2006
   1344 H8         32.2427   -8.0869   17.6501 H        42   G57       0.1640
   1345 H1         32.1848   -9.5925   11.3999 H        42   G57       0.3424
   1346 H21        32.3673  -11.7857   11.1293 H        42   G57       0.4364
   1347 H22        32.4844  -12.8858   12.4844 H        42   G57       0.4364
   1348 HO2'       34.4924  -13.3841   17.9785 H        42   G57       0.4186
   1349 P          37.0080  -10.8720   18.7940 P.3      43   C58       1.1662
   1350 OP1        37.9240  -11.7230   19.5820 O.co2    43   C58      -0.7760
   1351 OP2        37.0500   -9.4270   18.9260 O.co2    43   C58      -0.7760
   1352 O5'        37.1770  -11.2490   17.2530 O.3      43   C58      -0.4989
   1353 C5'        37.3030  -12.5910   16.8160 C.3      43   C58       0.0558
   1354 C4'        37.1330  -12.6800   15.3100 C.3      43   C58       0.1065
   1355 O4'        35.8270  -12.2280   14.8640 O.3      43   C58      -0.3548
   1356 C3'        38.0990  -11.8570   14.4750 C.3      43   C58       0.2022
   1357 O3'        39.3120  -12.5140   14.4620 O.3      43   C58      -0.5246
   1358 C2'        37.3920  -11.9030   13.1310 C.3      43   C58       0.0670
   1359 O2'        37.4900  -13.1450   12.4610 O.3      43   C58      -0.6139
   1360 C1'        35.9730  -11.5990   13.5940 C.3      43   C58       0.0066
   1361 N1         35.7420  -10.1230   13.6700 N.am     43   C58      -0.0484
   1362 C2         35.5700   -9.4390   12.4480 C.2      43   C58       0.7538
   1363 O2         35.6430  -10.1150   11.4220 O.2      43   C58      -0.6252
   1364 N3         35.3690   -8.0990   12.4690 N.2      43   C58      -0.7584
   1365 C4         35.3490   -7.4220   13.6350 C.2      43   C58       0.8185
   1366 N4         35.1390   -6.0950   13.6100 N.pl3    43   C58      -0.9530
   1367 C5         35.5180   -8.1020   14.8900 C.2      43   C58      -0.5215
   1368 C6         35.7220   -9.4340   14.8630 C.2      43   C58       0.0053
   1369 H5'        36.5379  -13.1985   17.2994 H        43   C58       0.0679
   1370 H5''       38.2884  -12.9679   17.0900 H        43   C58       0.0679
   1371 H4'        37.2441  -13.7249   15.0203 H        43   C58       0.1174
   1372 H3'        38.1932  -10.8378   14.8497 H        43   C58       0.0615
   1373 H2'        37.7562  -11.1012   12.4886 H        43   C58       0.0972
   1374 H1'        35.2641  -12.0380   12.8919 H        43   C58       0.2029
   1375 H5         35.4826   -7.5627   15.8250 H        43   C58       0.1928
   1376 H6         35.8719   -9.9687   15.7893 H        43   C58       0.1958
   1377 H41        35.0101   -5.6206   12.7277 H        43   C58       0.4234
   1378 H42        35.1101   -5.5719   14.4735 H        43   C58       0.4234
   1379 HO2'       38.0790  -13.0573   11.7080 H        43   C58       0.4186
   1380 P          40.6590  -11.6920   14.3750 P.3      44   A59       1.1662
   1381 OP1        41.7270  -12.6690   14.6850 O.co2    44   A59      -0.7760
   1382 OP2        40.6310  -10.4370   15.1240 O.co2    44   A59      -0.7760
   1383 O5'        40.7400  -11.2360   12.8340 O.3      44   A59      -0.4989
   1384 C5'        40.8710  -12.1570   11.7530 C.3      44   A59       0.0558
   1385 C4'        40.4720  -11.4690   10.4510 C.3      44   A59       0.1065
   1386 O4'        39.1230  -10.8960   10.4980 O.3      44   A59      -0.3548
   1387 C3'        41.3820  -10.3520    9.9590 C.3      44   A59       0.2022
   1388 O3'        42.4890  -10.9260    9.2420 O.3      44   A59      -0.5246
   1389 C2'        40.4730   -9.6580    8.9630 C.3      44   A59       0.0670
   1390 O2'        40.3480  -10.3740    7.7440 O.3      44   A59      -0.6139
   1391 C1'        39.1810   -9.6790    9.7530 C.3      44   A59       0.0394
   1392 N9         38.9550   -8.5260   10.6360 N.ar     44   A59      -0.0251
   1393 C8         38.8640   -8.5120   12.0060 C.ar     44   A59       0.2006
   1394 N7         38.5720   -7.3350   12.5010 N.ar     44   A59      -0.6073
   1395 C5         38.3820   -6.5320   11.3650 C.ar     44   A59       0.0515
   1396 C6         38.0050   -5.1770   11.1840 C.ar     44   A59       0.7009
   1397 N6         37.7760   -4.3380   12.1990 N.pl3    44   A59      -0.9019
   1398 N1         37.9300   -4.6850    9.9340 N.ar     44   A59      -0.7615
   1399 C2         38.1970   -5.5090    8.9030 C.ar     44   A59       0.5875
   1400 N3         38.5130   -6.8130    8.9540 N.ar     44   A59      -0.6997
   1401 C4         38.6010   -7.2670   10.2160 C.ar     44   A59       0.3053
   1402 H5'        41.9057  -12.4927   11.6846 H        44   A59       0.0679
   1403 H5''       40.2209  -13.0148   11.9252 H        44   A59       0.0679
   1404 H4'        40.4640  -12.2359    9.6765 H        44   A59       0.1174
   1405 H3'        41.7032   -9.6901   10.7632 H        44   A59       0.0615
   1406 H2'        40.8024   -8.6349    8.7819 H        44   A59       0.0972
   1407 H1'        38.3624   -9.7008    9.0336 H        44   A59       0.2007
   1408 H8         39.0186   -9.3886   12.6176 H        44   A59       0.1553
   1409 H2         38.1516   -5.0686    7.9179 H        44   A59       0.0473
   1410 H61        37.3088   -3.5286   11.8161 H        44   A59       0.4115
   1411 H62        38.0237   -4.4857   13.1670 H        44   A59       0.4115
   1412 HO2'       39.6577   -9.9759    7.2086 H        44   A59       0.4186
   1413 P          43.9400  -10.2390    9.2970 P.3      45   C60       1.1662
   1414 OP1        44.8390  -11.0800    8.4690 O.co2    45   C60      -0.7760
   1415 OP2        44.2740   -9.8100   10.6610 O.co2    45   C60      -0.7760
   1416 O5'        43.7280   -8.8580    8.5120 O.3      45   C60      -0.4989
   1417 C5'        43.3440   -8.7580    7.1330 C.3      45   C60       0.0558
   1418 C4'        42.9040   -7.3450    6.7770 C.3      45   C60       0.1065
   1419 O4'        41.7000   -6.9560    7.4970 O.3      45   C60      -0.3548
   1420 C3'        43.9100   -6.2960    7.2070 C.3      45   C60       0.2022
   1421 O3'        44.9770   -6.1710    6.2690 O.3      45   C60      -0.5246
   1422 C2'        43.0690   -5.0300    7.2900 C.3      45   C60       0.0670
   1423 O2'        42.7010   -4.5320    6.0160 O.3      45   C60      -0.6139
   1424 C1'        41.8340   -5.6150    7.9440 C.3      45   C60       0.0066
   1425 N1         41.7680   -5.5930    9.4530 N.am     45   C60      -0.0484
   1426 C2         41.3280   -4.4130   10.0670 C.2      45   C60       0.7538
   1427 O2         41.0660   -3.4170    9.3930 O.2      45   C60      -0.6252
   1428 N3         41.2230   -4.3740   11.4160 N.2      45   C60      -0.7584
   1429 C4         41.5500   -5.4510   12.1300 C.2      45   C60       0.8185
   1430 N4         41.3960   -5.3420   13.4690 N.pl3    45   C60      -0.9530
   1431 C5         41.9920   -6.6780   11.5390 C.2      45   C60      -0.5215
   1432 C6         42.0990   -6.7060   10.2050 C.2      45   C60       0.0053
   1433 H5'        44.1940   -9.0321    6.5081 H        45   C60       0.0679
   1434 H5''       42.5220   -9.4473    6.9402 H        45   C60       0.0679
   1435 H4'        42.7313   -7.2721    5.7032 H        45   C60       0.1174
   1436 H3'        44.3074   -6.5435    8.1913 H        45   C60       0.0615
   1437 H2'        43.5382   -4.2656    7.9094 H        45   C60       0.0972
   1438 H1'        40.9733   -5.0594    7.5716 H        45   C60       0.2029
   1439 H5         42.2284   -7.5420   12.1424 H        45   C60       0.1928
   1440 H6         42.4457   -7.6027    9.7129 H        45   C60       0.1958
   1441 H41        41.0674   -4.4756   13.8707 H        45   C60       0.4234
   1442 H42        41.6096   -6.1271   14.0674 H        45   C60       0.4234
   1443 HO2'       43.0154   -3.6299    5.9215 H        45   C60       0.4186
   1444 P          46.3960   -5.6000    6.7500 P.3      46   C61       1.1662
   1445 OP1        47.3370   -5.7680    5.6060 O.co2    46   C61      -0.7760
   1446 OP2        46.7890   -6.0230    8.1090 O.co2    46   C61      -0.7760
   1447 O5'        46.0310   -4.0270    6.8840 O.3      46   C61      -0.4989
   1448 C5'        45.5910   -3.1540    5.8150 C.3      46   C61       0.0558
   1449 C4'        45.2470   -1.7770    6.3730 C.3      46   C61       0.1065
   1450 O4'        44.1400   -1.8420    7.3230 O.3      46   C61      -0.3548
   1451 C3'        46.3560   -1.1580    7.1930 C.3      46   C61       0.2022
   1452 O3'        47.1750   -0.4660    6.3130 O.3      46   C61      -0.5246
   1453 C2'        45.6340   -0.1330    8.0470 C.3      46   C61       0.0670
   1454 O2'        45.3070    1.0190    7.2970 O.3      46   C61      -0.6139
   1455 C1'        44.3540   -0.9050    8.3650 C.3      46   C61       0.0066
   1456 N1         44.3310   -1.6490    9.6740 N.am     46   C61      -0.0484
   1457 C2         43.8270   -0.9730   10.7940 C.2      46   C61       0.7538
   1458 O2         43.4660    0.2050   10.6720 O.2      46   C61      -0.6252
   1459 N3         43.7650   -1.6690   11.9600 N.2      46   C61      -0.7584
   1460 C4         44.1910   -2.9400   12.0340 C.2      46   C61       0.8185
   1461 N4         44.0940   -3.5510   13.2190 N.pl3    46   C61      -0.9530
   1462 C5         44.7020   -3.6520   10.9060 C.2      46   C61      -0.5215
   1463 C6         44.7410   -2.9590    9.7600 C.2      46   C61       0.0053
   1464 H5'        46.3883   -3.0557    5.0783 H        46   C61       0.0679
   1465 H5''       44.7090   -3.5819    5.3385 H        46   C61       0.0679
   1466 H4'        44.9840   -1.1081    5.5536 H        46   C61       0.1174
   1467 H3'        46.9008   -1.8921    7.7866 H        46   C61       0.0615
   1468 H2'        46.1951    0.1138    8.9483 H        46   C61       0.0972
   1469 H1'        43.5232   -0.1994    8.3618 H        46   C61       0.2029
   1470 H5         45.0338   -4.6776   10.9723 H        46   C61       0.1928
   1471 H6         45.1084   -3.4477    8.8698 H        46   C61       0.1958
   1472 H41        43.7226   -3.0528   14.0152 H        46   C61       0.4234
   1473 H42        44.3921   -4.5109   13.3181 H        46   C61       0.4234
   1474 HO2'       44.4513    1.3518    7.5775 H        46   C61       0.4186
   1475 P          48.7500   -0.6370    6.4500 P.3      47   G62       1.1662
   1476 OP1        49.2560   -0.0620    5.1670 O.co2    47   G62      -0.7760
   1477 OP2        49.0660   -2.0240    6.8420 O.co2    47   G62      -0.7760
   1478 O5'        49.1990    0.2960    7.6400 O.3      47   G62      -0.4989
   1479 C5'        50.5870    0.4610    7.8010 C.3      47   G62       0.0558
   1480 C4'        50.9050    0.9210    9.2070 C.3      47   G62       0.1065
   1481 O4'        50.7540   -0.1790   10.1380 O.3      47   G62      -0.3548
   1482 C3'        52.3270    1.4170    9.3880 C.3      47   G62       0.2022
   1483 O3'        52.2340    2.5310   10.2510 O.3      47   G62      -0.5246
   1484 C2'        53.0340    0.2250   10.0340 C.3      47   G62       0.0670
   1485 O2'        54.1790    0.5940   10.7780 O.3      47   G62      -0.6139
   1486 C1'        51.9150   -0.3000   10.9360 C.3      47   G62       0.0191
   1487 N9         51.9710   -1.7050   11.3580 N.ar     47   G62       0.0492
   1488 C8         52.4500   -2.7790   10.6380 C.ar     47   G62       0.1374
   1489 N7         52.3480   -3.9180   11.2670 N.ar     47   G62      -0.5709
   1490 C5         51.7600   -3.5880   12.4870 C.ar     47   G62       0.1744
   1491 C6         51.4040   -4.4100   13.5880 C.2      47   G62       0.4770
   1492 O6         51.5430   -5.6360   13.7140 O.2      47   G62      -0.5597
   1493 N1         50.8260   -3.6840   14.6300 N.am     47   G62      -0.4787
   1494 C2         50.6240   -2.3190   14.6110 C.2      47   G62       0.7657
   1495 N2         50.0590   -1.7860   15.7050 N.pl3    47   G62      -0.9672
   1496 N3         50.9570   -1.5370   13.5860 N.2      47   G62      -0.6323
   1497 C4         51.5170   -2.2300   12.5550 C.ar     47   G62       0.1222
   1498 H5'        50.9446    1.2060    7.0902 H        47   G62       0.0679
   1499 H5''       51.0874   -0.4884    7.6105 H        47   G62       0.0679
   1500 H4'        50.2140    1.7172    9.4841 H        47   G62       0.1174
   1501 H3'        52.7826    1.6851    8.4348 H        47   G62       0.0615
   1502 H2'        53.2939   -0.5174    9.2794 H        47   G62       0.0972
   1503 H1'        51.8229    0.3406   11.8130 H        47   G62       0.2006
   1504 H8         52.8699   -2.6864    9.6473 H        47   G62       0.1640
   1505 H1         50.5359   -4.1917   15.4536 H        47   G62       0.3424
   1506 H21        49.8066   -2.3788   16.4828 H        47   G62       0.4364
   1507 H22        49.8860   -0.7920   15.7507 H        47   G62       0.4364
   1508 HO2'       54.6399   -0.1960   11.0698 H        47   G62       0.4186
   1509 P          53.3380    3.6770   10.2590 P.3      48   U63       1.1662
   1510 OP1        53.9580    3.7360    8.9070 O.co2    48   U63      -0.7760
   1511 OP2        54.1890    3.4490   11.4460 O.co2    48   U63      -0.7760
   1512 O5'        52.4880    5.0100   10.5340 O.3      48   U63      -0.4989
   1513 C5'        51.3430    5.3270    9.7340 C.3      48   U63       0.0558
   1514 C4'        50.2710    6.0340   10.5520 C.3      48   U63       0.1065
   1515 O4'        49.4540    5.0490   11.2530 O.3      48   U63      -0.3548
   1516 C3'        50.8030    6.9840   11.6190 C.3      48   U63       0.2022
   1517 O3'        49.9750    8.1480   11.6670 O.3      48   U63      -0.5246
   1518 C2'        50.7140    6.1370   12.8920 C.3      48   U63       0.0670
   1519 O2'        50.6360    6.9270   14.0640 O.3      48   U63      -0.6139
   1520 C1'        49.4080    5.3710   12.6310 C.3      48   U63       0.0674
   1521 N1         49.2720    4.1280   13.4610 N.am     48   U63       0.0418
   1522 C2         48.6340    4.1990   14.6890 C.2      48   U63       0.4687
   1523 O2         48.1540    5.2270   15.1270 O.2      48   U63      -0.5477
   1524 N3         48.5800    3.0190   15.3820 N.am     48   U63      -0.3549
   1525 C4         49.0870    1.7880   14.9920 C.2      48   U63       0.5952
   1526 O4         48.9600    0.8050   15.7210 O.2      48   U63      -0.5761
   1527 C5         49.7410    1.7870   13.6960 C.2      48   U63      -0.3635
   1528 C6         49.8030    2.9300   13.0090 C.2      48   U63      -0.1126
   1529 H5'        51.6515    5.9781    8.9161 H        48   U63       0.0679
   1530 H5''       50.9292    4.4068    9.3217 H        48   U63       0.0679
   1531 H4'        49.6306    6.5971    9.8732 H        48   U63       0.1174
   1532 H3'        51.8375    7.2564   11.4100 H        48   U63       0.0615
   1533 H2'        51.5560    5.4473   12.9516 H        48   U63       0.0972
   1534 H1'        48.5591    6.0277   12.8210 H        48   U63       0.1824
   1535 H3         48.1182    3.0484   16.2798 H        48   U63       0.3154
   1536 H5         50.1688    0.8798   13.2956 H        48   U63       0.1811
   1537 H6         50.2943    2.9208   12.0473 H        48   U63       0.2188
   1538 HO2'       49.7406    6.9005   14.4093 H        48   U63       0.4186
   1539 P          50.4920    9.5840   11.1910 P.3      49   A64       1.1662
   1540 OP1        51.9520    9.5060   10.9760 O.co2    49   A64      -0.7760
   1541 OP2        49.9370   10.5890   12.1290 O.co2    49   A64      -0.7760
   1542 O5'        49.7760    9.7570    9.7700 O.3      49   A64      -0.4989
   1543 C5'        48.3520    9.7190    9.6920 C.3      49   A64       0.0558
   1544 C4'        47.8830    9.1590    8.3590 C.3      49   A64       0.1065
   1545 O4'        48.1290    7.7290    8.2560 O.3      49   A64      -0.3548
   1546 C3'        46.3910    9.3460    8.1140 C.3      49   A64       0.2022
   1547 O3'        46.2110   10.4990    7.2940 O.3      49   A64      -0.5246
   1548 C2'        45.9720    8.0550    7.4160 C.3      49   A64       0.0670
   1549 O2'        46.1440    8.1120    6.0140 O.3      49   A64      -0.6139
   1550 C1'        46.9230    7.0160    7.9870 C.3      49   A64       0.0394
   1551 N9         46.5360    6.3230    9.2300 N.ar     49   A64      -0.0251
   1552 C8         45.9510    6.8640   10.3420 C.ar     49   A64       0.2006
   1553 N7         45.7700    6.0100   11.3220 N.ar     49   A64      -0.6073
   1554 C5         46.2750    4.8260   10.8160 C.ar     49   A64       0.0515
   1555 C6         46.3850    3.5330   11.3590 C.ar     49   A64       0.7009
   1556 N6         45.9570    3.2140   12.5850 N.pl3    49   A64      -0.9019
   1557 N1         46.9380    2.5640   10.6040 N.ar     49   A64      -0.7615
   1558 C2         47.3830    2.8630    9.3630 C.ar     49   A64       0.5875
   1559 N3         47.3330    4.0530    8.7580 N.ar     49   A64      -0.6997
   1560 C4         46.7600    4.9950    9.5290 C.ar     49   A64       0.3053
   1561 H5'        47.9699    9.0889   10.4951 H        49   A64       0.0679
   1562 H5''       47.9604   10.7290    9.8130 H        49   A64       0.0679
   1563 H4'        48.4298    9.6619    7.5614 H        49   A64       0.1174
   1564 H3'        45.8591    9.4608    9.0585 H        49   A64       0.0615
   1565 H2'        44.9404    7.8049    7.6638 H        49   A64       0.0972
   1566 H1'        47.1240    6.2686    7.2195 H        49   A64       0.2007
   1567 H8         45.6633    7.9029   10.4077 H        49   A64       0.1553
   1568 H2         47.8259    2.0540    8.8011 H        49   A64       0.0473
   1569 HO2'       45.2868    8.1902    5.5889 H        49   A64       0.4186
   1570 H61        46.1951    2.2487   12.7628 H        49   A64       0.4115
   1571 H62        45.4778    3.8324   13.2238 H        49   A64       0.4115
   1572 P          44.9080   11.4160    7.4240 P.3      50   A65       1.1662
   1573 OP1        45.1940   12.6360    6.6230 O.co2    50   A65      -0.7760
   1574 OP2        44.4600   11.5350    8.8350 O.co2    50   A65      -0.7760
   1575 O5'        43.7920   10.5720    6.6550 O.3      50   A65      -0.4989
   1576 C5'        43.8660   10.3390    5.2510 C.3      50   A65       0.0558
   1577 C4'        42.8450    9.2870    4.8440 C.3      50   A65       0.1065
   1578 O4'        43.1860    8.0260    5.4960 O.3      50   A65      -0.3548
   1579 C3'        41.3900    9.5860    5.1890 C.3      50   A65       0.2022
   1580 O3'        40.5500    9.0020    4.1600 O.3      50   A65      -0.5246
   1581 C2'        41.2760    8.8950    6.5610 C.3      50   A65       0.0670
   1582 O2'        39.9470    8.5980    6.9540 O.3      50   A65      -0.6139
   1583 C1'        42.0730    7.6200    6.2500 C.3      50   A65       0.0394
   1584 N9         42.4060    6.7840    7.3970 N.ar     50   A65      -0.0251
   1585 C8         42.3990    7.1450    8.7230 C.ar     50   A65       0.2006
   1586 N7         42.7180    6.1520    9.5200 N.ar     50   A65      -0.6073
   1587 C5         42.8810    5.0780    8.6730 C.ar     50   A65       0.0515
   1588 C6         43.2040    3.7310    8.9190 C.ar     50   A65       0.7009
   1589 N6         43.3880    3.2630   10.1560 N.pl3    50   A65      -0.9019
   1590 N1         43.3370    2.8900    7.8650 N.ar     50   A65      -0.7615
   1591 C2         43.1440    3.3920    6.6170 C.ar     50   A65       0.5875
   1592 N3         42.8190    4.6440    6.2570 N.ar     50   A65      -0.6997
   1593 C4         42.7070    5.4480    7.3490 C.ar     50   A65       0.3053
   1594 H5'        43.6586   11.2678    4.7196 H        50   A65       0.0679
   1595 H5''       44.8664    9.9908    4.9942 H        50   A65       0.0679
   1596 H4'        42.9163    9.1428    3.7659 H        50   A65       0.1174
   1597 H3'        41.2188   10.6591    5.2740 H        50   A65       0.0615
   1598 H2'        41.7794    9.4831    7.3284 H        50   A65       0.0972
   1599 H1'        41.4513    7.0145    5.5905 H        50   A65       0.2007
   1600 H8         42.1572    8.1382    9.0716 H        50   A65       0.1553
   1601 H2         43.2688    2.6897    5.8060 H        50   A65       0.0473
   1602 H61        43.0670    3.8541   10.9094 H        50   A65       0.4115
   1603 H62        43.8236    2.3683   10.3285 H        50   A65       0.4115
   1604 HO2'       39.4612    9.4156    7.0848 H        50   A65       0.4186
   1605 P          39.2430    9.6160    3.4660 P.3      51   A66       1.1662
   1606 OP1        39.6790    9.9980    2.0780 O.co2    51   A66      -0.7760
   1607 OP2        38.6820   10.6840    4.3170 O.co2    51   A66      -0.7760
   1608 O5'        38.3070    8.3500    3.2600 O.3      51   A66      -0.4989
   1609 C5'        37.8060    7.6190    4.3860 C.3      51   A66       0.0558
   1610 C4'        38.1390    6.1680    4.1450 C.3      51   A66       0.1065
   1611 O4'        39.4650    5.8400    4.6380 O.3      51   A66      -0.3548
   1612 C3'        37.2540    5.1840    4.8770 C.3      51   A66       0.2022
   1613 O3'        35.9800    5.1250    4.2990 O.3      51   A66      -0.5246
   1614 C2'        38.0540    3.9150    4.6750 C.3      51   A66       0.0670
   1615 O2'        38.0630    3.4540    3.3190 O.3      51   A66      -0.6139
   1616 C1'        39.4230    4.4830    5.0750 C.3      51   A66       0.0394
   1617 N9         39.5400    4.4100    6.5250 N.ar     51   A66      -0.0251
   1618 C8         39.4230    5.4160    7.4470 C.ar     51   A66       0.2006
   1619 N7         39.5290    4.9910    8.6760 N.ar     51   A66      -0.6073
   1620 C5         39.7190    3.6300    8.5570 C.ar     51   A66       0.0515
   1621 C6         39.9470    2.5890    9.4920 C.ar     51   A66       0.7009
   1622 N6         39.9510    2.7810   10.8050 N.pl3    51   A66      -0.9019
   1623 N1         40.1120    1.3290    9.0320 N.ar     51   A66      -0.7615
   1624 C2         40.0960    1.1040    7.7060 C.ar     51   A66       0.5875
   1625 N3         39.9070    2.0090    6.7280 N.ar     51   A66      -0.6997
   1626 C4         39.7440    3.2540    7.2260 C.ar     51   A66       0.3053
   1627 H5'        38.2838    7.9666    5.3019 H        51   A66       0.0679
   1628 H5''       36.7258    7.7449    4.4597 H        51   A66       0.0679
   1629 H4'        38.0939    5.9632    3.0754 H        51   A66       0.1174
   1630 H3'        37.1878    5.4357    5.9355 H        51   A66       0.0615
   1631 H2'        37.7338    3.1298    5.3598 H        51   A66       0.0972
   1632 H1'        40.2213    3.9101    4.6031 H        51   A66       0.2007
   1633 H8         39.2603    6.4509    7.1846 H        51   A66       0.1553
   1634 H2         40.2523    0.0829    7.3909 H        51   A66       0.0473
   1635 H61        39.8475    3.7097   11.1883 H        51   A66       0.4115
   1636 H62        40.0584    1.9919   11.4262 H        51   A66       0.4115
   1637 HO2'       37.1978    3.1044    3.0936 H        51   A66       0.4186
   1638 P          34.6590    5.0930    5.1900 P.3      52   U67       1.1662
   1639 OP1        33.4870    4.8600    4.3120 O.co2    52   U67      -0.7760
   1640 OP2        34.6150    6.2890    6.0540 O.co2    52   U67      -0.7760
   1641 O5'        34.9200    3.8990    6.2120 O.3      52   U67      -0.4989
   1642 C5'        34.3020    2.6340    6.0970 C.3      52   U67       0.0558
   1643 C4'        35.2510    1.6350    5.4780 C.3      52   U67       0.1065
   1644 O4'        36.4860    1.5010    6.2400 O.3      52   U67      -0.3548
   1645 C3'        34.7040    0.2190    5.4050 C.3      52   U67       0.2022
   1646 O3'        33.8700    0.1170    4.2500 O.3      52   U67      -0.5246
   1647 C2'        35.9790   -0.6040    5.3270 C.3      52   U67       0.0670
   1648 O2'        36.5350   -0.6200    4.0290 O.3      52   U67      -0.6139
   1649 C1'        36.8710    0.1470    6.3050 C.3      52   U67       0.0674
   1650 N1         36.7780   -0.3590    7.7160 N.am     52   U67       0.0418
   1651 C2         37.2540   -1.6400    7.9810 C.2      52   U67       0.4687
   1652 O2         37.7250   -2.3950    7.1380 O.2      52   U67      -0.5477
   1653 N3         37.1270   -2.0620    9.2760 N.am     52   U67      -0.3549
   1654 C4         36.6220   -1.3160   10.3330 C.2      52   U67       0.5952
   1655 O4         36.5990   -1.8250   11.4470 O.2      52   U67      -0.5761
   1656 C5         36.1590    0.0030    9.9900 C.2      52   U67      -0.3635
   1657 C6         36.2650    0.4310    8.7220 C.2      52   U67      -0.1126
   1658 H5'        34.0113    2.2857    7.0881 H        52   U67       0.0679
   1659 H5''       33.4138    2.7226    5.4714 H        52   U67       0.0679
   1660 H4'        35.4975    1.9664    4.4693 H        52   U67       0.1174
   1661 H3'        34.1433   -0.0242    6.3075 H        52   U67       0.0615
   1662 H2'        35.7992   -1.6203    5.6776 H        52   U67       0.0972
   1663 H1'        37.9050    0.0616    5.9709 H        52   U67       0.1824
   1664 H3         37.4285   -3.0035    9.4826 H        52   U67       0.3154
   1665 H5         35.7298    0.6432   10.7466 H        52   U67       0.1811
   1666 H6         35.9362    1.4312    8.4814 H        52   U67       0.2188
   1667 HO2'       35.9514   -1.0994    3.4363 H        52   U67       0.4186
   1668 P          32.5130   -0.6870    4.1690 P.3      53   G68       1.1662
   1669 OP1        31.8960   -0.3630    2.8780 O.co2    53   G68      -0.7760
   1670 OP2        31.7370   -0.4910    5.4280 O.co2    53   G68      -0.7760
   1671 O5'        33.0310   -2.2010    4.2080 O.3      53   G68      -0.4989
   1672 C5'        33.7310   -2.7560    3.0840 C.3      53   G68       0.0558
   1673 C4'        34.3010   -4.1330    3.3770 C.3      53   G68       0.1065
   1674 O4'        35.3190   -4.0300    4.4050 O.3      53   G68      -0.3548
   1675 C3'        33.3340   -5.1840    3.9130 C.3      53   G68       0.2022
   1676 O3'        32.6660   -5.8120    2.8410 O.3      53   G68      -0.5246
   1677 C2'        34.3080   -6.1560    4.5730 C.3      53   G68       0.0670
   1678 O2'        35.0540   -6.8770    3.5920 O.3      53   G68      -0.6139
   1679 C1'        35.2130   -5.1540    5.2580 C.3      53   G68       0.0191
   1680 N9         34.8290   -4.7230    6.6130 N.ar     53   G68       0.0492
   1681 C8         34.3510   -3.5210    7.0590 C.ar     53   G68       0.1374
   1682 N7         34.1310   -3.5230    8.3560 N.ar     53   G68      -0.5709
   1683 C5         34.5000   -4.7940    8.7940 C.ar     53   G68       0.1744
   1684 C6         34.5190   -5.3970   10.0880 C.2      53   G68       0.4770
   1685 O6         34.1730   -4.9090   11.1840 O.2      53   G68      -0.5597
   1686 N1         34.9570   -6.7260   10.0400 N.am     53   G68      -0.4787
   1687 C2         35.3700   -7.3820    8.9020 C.2      53   G68       0.7657
   1688 N2         35.7800   -8.6530    9.0100 N.pl3    53   G68      -0.9672
   1689 N3         35.3680   -6.8260    7.6790 N.2      53   G68      -0.6323
   1690 C4         34.9360   -5.5420    7.7140 C.ar     53   G68       0.1222
   1691 H5'        33.0390   -2.8353    2.2456 H        53   G68       0.0679
   1692 H5''       34.5459   -2.0866    2.8085 H        53   G68       0.0679
   1693 H4'        34.7632   -4.5180    2.4680 H        53   G68       0.1174
   1694 H3'        32.6343   -4.7603    4.6335 H        53   G68       0.0615
   1695 H2'        33.8127   -6.8179    5.2834 H        53   G68       0.0972
   1696 H1'        36.2032   -5.6042    5.3279 H        53   G68       0.2006
   1697 H8         34.1746   -2.6686    6.4197 H        53   G68       0.1640
   1698 H1         34.9711   -7.2435   10.9072 H        53   G68       0.3424
   1699 H21        35.7881   -9.1061    9.9126 H        53   G68       0.4364
   1700 H22        36.0810   -9.1580    8.1888 H        53   G68       0.4364
   1701 HO2'       35.7797   -7.3392    4.0178 H        53   G68       0.4186
   1702 P          31.1850   -6.4230    2.9590 P.3      54   U69       1.1662
   1703 OP1        30.8000   -6.8550    1.5880 O.co2    54   U69      -0.7760
   1704 OP2        30.2920   -5.5150    3.7240 O.co2    54   U69      -0.7760
   1705 O5'        31.4130   -7.7240    3.8790 O.3      54   U69      -0.4989
   1706 C5'        32.2460   -8.8530    3.5000 C.3      54   U69       0.0558
   1707 C4'        32.4470   -9.7970    4.6910 C.3      54   U69       0.1065
   1708 O4'        33.2300   -9.1560    5.7290 O.3      54   U69      -0.3548
   1709 C3'        31.1740  -10.1780    5.4350 C.3      54   U69       0.2022
   1710 O3'        30.5070  -11.2450    4.8290 O.3      54   U69      -0.5246
   1711 C2'        31.7010  -10.5970    6.8040 C.3      54   U69       0.0670
   1712 O2'        32.3980  -11.8370    6.8250 O.3      54   U69      -0.6139
   1713 C1'        32.6950   -9.4890    7.0190 C.3      54   U69       0.0674
   1714 N1         32.2070   -8.2700    7.7230 N.am     54   U69       0.0418
   1715 C2         32.1940   -8.3300    9.1040 C.2      54   U69       0.4687
   1716 O2         32.5320   -9.3350    9.6920 O.2      54   U69      -0.5477
   1717 N3         31.7850   -7.1950    9.7420 N.am     54   U69      -0.3549
   1718 C4         31.3640   -6.0140    9.1440 C.2      54   U69       0.5952
   1719 O4         31.0010   -5.0570    9.8580 O.2      54   U69      -0.5761
   1720 C5         31.4040   -6.0150    7.6940 C.2      54   U69      -0.3635
   1721 C6         31.8020   -7.1120    7.0430 C.2      54   U69      -0.1126
   1722 H5'        31.7637   -9.3977    2.6884 H        54   U69       0.0679
   1723 H5''       33.2158   -8.4877    3.1622 H        54   U69       0.0679
   1724 H4'        32.9569  -10.7005    4.3567 H        54   U69       0.1174
   1725 H3'        30.5126   -9.3165    5.5272 H        54   U69       0.0615
   1726 H2'        30.9125  -10.5731    7.5562 H        54   U69       0.0972
   1727 H1'        33.5126   -9.8990    7.6119 H        54   U69       0.1824
   1728 H3         31.7888   -7.2158   10.7518 H        54   U69       0.3154
   1729 H5         31.1133   -5.1328    7.1429 H        54   U69       0.1811
   1730 H6         31.8121   -7.1068    5.9631 H        54   U69       0.2188
   1731 HO2'       31.8822  -12.4864    7.3086 H        54   U69       0.4186
   1732 P          28.9240  -11.4630    4.8500 P.3      55   C70       1.1662
   1733 OP1        28.6560  -12.3740    3.7130 O.co2    55   C70      -0.7760
   1734 OP2        28.3020  -10.1110    4.9040 O.co2    55   C70      -0.7760
   1735 O5'        28.6880  -12.1700    6.2620 O.3      55   C70      -0.4989
   1736 C5'        29.2090  -13.5000    6.5150 C.3      55   C70       0.0558
   1737 C4'        29.2830  -13.8350    7.9910 C.3      55   C70       0.1065
   1738 O4'        30.0870  -12.8770    8.7130 O.3      55   C70      -0.3548
   1739 C3'        27.9590  -13.7840    8.7320 C.3      55   C70       0.2022
   1740 O3'        27.2580  -15.0040    8.4500 O.3      55   C70      -0.5246
   1741 C2'        28.3970  -13.6680   10.1820 C.3      55   C70       0.0670
   1742 O2'        28.9990  -14.8370   10.7260 O.3      55   C70      -0.6139
   1743 C1'        29.5010  -12.6500    9.9960 C.3      55   C70       0.0066
   1744 N1         29.1790  -11.1830   10.1560 N.am     55   C70      -0.0484
   1745 C2         29.0630  -10.6680   11.4530 C.2      55   C70       0.7538
   1746 O2         29.1760  -11.3790   12.4500 O.2      55   C70      -0.6252
   1747 N3         28.8610   -9.3480   11.6270 N.2      55   C70      -0.7584
   1748 C4         28.6990   -8.5440   10.5740 C.2      55   C70       0.8185
   1749 N4         28.4900   -7.2540   10.8550 N.pl3    55   C70      -0.9530
   1750 C5         28.7820   -9.0300    9.2390 C.2      55   C70      -0.5215
   1751 C6         29.0310  -10.3490    9.0590 C.2      55   C70       0.0053
   1752 H5'        30.2118  -13.5664    6.0930 H        55   C70       0.0679
   1753 H5''       28.5688  -14.2298    6.0194 H        55   C70       0.0679
   1754 H4'        29.7192  -14.8269    8.1094 H        55   C70       0.1174
   1755 H3'        27.3732  -12.9162    8.4288 H        55   C70       0.0615
   1756 H2'        27.5977  -13.2888   10.8187 H        55   C70       0.0972
   1757 H1'        30.2678  -12.8832   10.7347 H        55   C70       0.2029
   1758 H5         28.6506   -8.3678    8.3960 H        55   C70       0.1928
   1759 H6         29.1143  -10.7511    8.0601 H        55   C70       0.1958
   1760 H41        28.4502   -6.9465   11.8162 H        55   C70       0.4234
   1761 H42        28.3719   -6.5867   10.1061 H        55   C70       0.4234
   1762 HO2'       28.4865  -15.1406   11.4788 H        55   C70       0.4186
   1763 P          25.6960  -14.9830    8.1700 P.3      56   C71       1.1662
   1764 OP1        25.4000  -16.3420    7.6740 O.co2    56   C71      -0.7760
   1765 OP2        25.3550  -13.7830    7.3910 O.co2    56   C71      -0.7760
   1766 O5'        24.9660  -14.8340    9.5840 O.3      56   C71      -0.4989
   1767 C5'        24.9780  -15.8970   10.5180 C.3      56   C71       0.0558
   1768 C4'        24.9140  -15.3900   11.9580 C.3      56   C71       0.1065
   1769 O4'        26.0050  -14.4590   12.1990 O.3      56   C71      -0.3548
   1770 C3'        23.7120  -14.5520   12.3470 C.3      56   C71       0.2022
   1771 O3'        22.5390  -15.3460   12.6240 O.3      56   C71      -0.5246
   1772 C2'        24.2550  -13.8680   13.6050 C.3      56   C71       0.0670
   1773 O2'        24.3460  -14.8030   14.6690 O.3      56   C71      -0.6139
   1774 C1'        25.6170  -13.4470   13.1080 C.3      56   C71       0.0066
   1775 N1         25.5770  -12.0690   12.4670 N.am     56   C71      -0.0484
   1776 C2         25.5910  -10.9520   13.3220 C.2      56   C71       0.7538
   1777 O2         25.5650  -11.1160   14.5580 O.2      56   C71      -0.6252
   1778 N3         25.5650   -9.7270   12.7580 N.2      56   C71      -0.7584
   1779 C4         25.5410   -9.5940   11.4250 C.2      56   C71       0.8185
   1780 N4         25.5240   -8.3430   10.9680 N.pl3    56   C71      -0.9530
   1781 C5         25.5360  -10.7010   10.5200 C.2      56   C71      -0.5215
   1782 C6         25.5580  -11.9220   11.0920 C.2      56   C71       0.0053
   1783 H5'        24.1172  -16.5393   10.3320 H        56   C71       0.0679
   1784 H5''       25.8909  -16.4776   10.3851 H        56   C71       0.0679
   1785 H4'        25.0021  -16.2341   12.6420 H        56   C71       0.1174
   1786 H3'        23.4975  -13.8132   11.5749 H        56   C71       0.0615
   1787 H2'        23.6485  -13.0060   13.8830 H        56   C71       0.0972
   1788 H1'        26.3145  -13.4318   13.9455 H        56   C71       0.2029
   1789 H5         25.5159  -10.5680    9.4484 H        56   C71       0.1928
   1790 H6         25.5608  -12.8012   10.4648 H        56   C71       0.1958
   1791 H41        25.5286   -7.5685   11.6162 H        56   C71       0.4234
   1792 H42        25.5065   -8.1689    9.9733 H        56   C71       0.4234
   1793 HO2'       24.6870  -14.3650   15.4522 H        56   C71       0.4186
   1794 P          21.0350  -14.8050   12.5430 P.3      57   G72       1.1662
   1795 OP1        20.1660  -15.9490   12.9190 O.co2    57   G72      -0.7760
   1796 OP2        20.8810  -14.0730   11.2560 O.co2    57   G72      -0.7760
   1797 O5'        21.0440  -13.6680   13.6800 O.3      57   G72      -0.4989
   1798 C5'        21.0310  -14.0580   15.0310 C.3      57   G72       0.0558
   1799 C4'        21.0340  -12.8210   15.9020 C.3      57   G72       0.1065
   1800 O4'        22.2560  -12.0800   15.6930 O.3      57   G72      -0.3548
   1801 C3'        19.9220  -11.8410   15.6140 C.3      57   G72       0.2022
   1802 O3'        18.7830  -12.2400   16.3850 O.3      57   G72      -0.5246
   1803 C2'        20.5470  -10.5550   16.1650 C.3      57   G72       0.0670
   1804 O2'        20.4990  -10.4810   17.5710 O.3      57   G72      -0.6139
   1805 C1'        22.0070  -10.6910   15.7360 C.3      57   G72       0.0191
   1806 N9         22.1660  -10.0300   14.4510 N.ar     57   G72       0.0492
   1807 C8         22.1920  -10.5650   13.1920 C.ar     57   G72       0.1374
   1808 N7         22.3230   -9.6640   12.2590 N.ar     57   G72      -0.5709
   1809 C5         22.3820   -8.4640   12.9460 C.ar     57   G72       0.1744
   1810 C6         22.4710   -7.1380   12.4550 C.2      57   G72       0.4770
   1811 O6         22.5670   -6.7710   11.2850 O.2      57   G72      -0.5597
   1812 N1         22.4850   -6.1960   13.4870 N.am     57   G72      -0.4787
   1813 C2         22.3900   -6.5140   14.8310 C.2      57   G72       0.7657
   1814 N2         22.4090   -5.4820   15.6870 N.pl3    57   G72      -0.9672
   1815 N3         22.2710   -7.7570   15.3030 N.2      57   G72      -0.6323
   1816 C4         22.2720   -8.6720   14.2980 C.ar     57   G72       0.1222
   1817 H5'        21.9150  -14.6582   15.2463 H        57   G72       0.0679
   1818 H5''       20.1343  -14.6439   15.2328 H        57   G72       0.0679
   1819 H4'        20.9776  -13.1237   16.9476 H        57   G72       0.1174
   1820 H3'        19.6977  -11.7698   14.5497 H        57   G72       0.0615
   1821 H2'        20.0890   -9.6751   15.7132 H        57   G72       0.0972
   1822 H1'        22.6552  -10.2217   16.4761 H        57   G72       0.2006
   1823 H8         22.1123  -11.6233   12.9920 H        57   G72       0.1640
   1824 H1         22.5698   -5.2212   13.2365 H        57   G72       0.3424
   1825 H21        22.4939   -4.5380   15.3381 H        57   G72       0.4364
   1826 H22        22.3384   -5.6487   16.6806 H        57   G72       0.4364
   1827 HO2'       19.5864  -10.3951   17.8564 H        57   G72       0.4186
   1828 P          17.2800  -11.9360   15.9170 P.3      58   A73       1.1662
   1829 OP1        16.3820  -12.8180   16.6890 O.co2    58   A73      -0.7760
   1830 OP2        17.2490  -11.9360   14.4480 O.co2    58   A73      -0.7760
   1831 O5'        17.0530  -10.4220   16.3770 O.3      58   A73      -0.4989
   1832 C5'        15.7070   -9.9290   16.4670 C.3      58   A73       0.0558
   1833 C4'        15.7780   -8.4760   16.8750 C.3      58   A73       0.1065
   1834 O4'        16.7260   -7.7830   16.0270 O.3      58   A73      -0.3548
   1835 C3'        14.4950   -7.6940   16.6920 C.3      58   A73       0.2022
   1836 O3'        13.7200   -7.8580   17.8470 O.3      58   A73      -0.5246
   1837 C2'        15.0190   -6.2700   16.5990 C.3      58   A73       0.0670
   1838 O2'        15.4280   -5.7820   17.8650 O.3      58   A73      -0.6139
   1839 C1'        16.2340   -6.4990   15.7220 C.3      58   A73       0.0394
   1840 N9         16.0410   -6.3540   14.2710 N.ar     58   A73      -0.0251
   1841 C8         15.9940   -7.3150   13.2910 C.ar     58   A73       0.2006
   1842 N7         15.8500   -6.8210   12.0760 N.ar     58   A73      -0.6073
   1843 C5         15.8120   -5.4410   12.2890 C.ar     58   A73       0.0515
   1844 C6         15.6700   -4.3270   11.4360 C.ar     58   A73       0.7009
   1845 N6         15.5370   -4.4440   10.1140 N.pl3    58   A73      -0.9019
   1846 N1         15.6640   -3.0810   11.9850 N.ar     58   A73      -0.7615
   1847 C2         15.7880   -2.9550   13.3160 C.ar     58   A73       0.5875
   1848 N3         15.9170   -3.9280   14.2230 N.ar     58   A73      -0.6997
   1849 C4         15.9250   -5.1470   13.6350 C.ar     58   A73       0.3053
   1850 H5'        15.1523  -10.4976   17.2134 H        58   A73       0.0679
   1851 H5''       15.2166  -10.0163   15.4975 H        58   A73       0.0679
   1852 H4'        16.1010   -8.4059   17.9137 H        58   A73       0.1174
   1853 H3'        13.9577   -7.9927   15.7919 H        58   A73       0.0615
   1854 H2'        14.2979   -5.6049   16.1239 H        58   A73       0.0972
   1855 H1'        16.9942   -5.7784   16.0235 H        58   A73       0.2007
   1856 H8         16.0678   -8.3730   13.4951 H        58   A73       0.1553
   1857 H2         15.7829   -1.9456   13.6999 H        58   A73       0.0473
   1858 H61        15.5370   -5.3586    9.6854 H        58   A73       0.4115
   1859 H62        15.4363   -3.6180    9.5415 H        58   A73       0.4115
   1860 HO2'       14.6563   -5.6382   18.4176 H        58   A73       0.4186
   1861 P          12.1160   -7.9000   17.7420 P.3      59   U74       1.1662
   1862 OP1        11.7010   -8.3200   19.0980 O.co2    59   U74      -0.7760
   1863 OP2        11.7180   -8.6780   16.5430 O.co2    59   U74      -0.7760
   1864 O5'        11.6880   -6.3840   17.4580 O.3      59   U74      -0.4989
   1865 C5'        11.9480   -5.3420   18.3650 C.3      59   U74       0.0558
   1866 C4'        11.9750   -4.0490   17.5900 C.3      59   U74       0.1065
   1867 O4'        12.9370   -4.1490   16.5130 O.3      59   U74      -0.3548
   1868 C3'        10.7050   -3.7320   16.8140 C.3      59   U74       0.2022
   1869 O3'         9.7170   -3.2490   17.6800 O.3      59   U74      -0.5246
   1870 C2'        11.2190   -2.6480   15.8730 C.3      59   U74       0.0670
   1871 O2'        11.5070   -1.4130   16.5190 O.3      59   U74      -0.6139
   1872 C1'        12.5200   -3.3170   15.4470 C.3      59   U74       0.0674
   1873 N1         12.4700   -4.0950   14.1580 N.am     59   U74       0.0418
   1874 C2         12.5250   -3.3650   12.9820 C.2      59   U74       0.4687
   1875 O2         12.5890   -2.1530   12.9500 O.2      59   U74      -0.5477
   1876 N3         12.5100   -4.1180   11.8360 N.am     59   U74      -0.3549
   1877 C4         12.4570   -5.5010   11.7530 C.2      59   U74       0.5952
   1878 O4         12.4520   -6.0340   10.6500 O.2      59   U74      -0.5761
   1879 C5         12.4110   -6.1990   13.0130 C.2      59   U74      -0.3635
   1880 C6         12.4240   -5.4840   14.1480 C.2      59   U74      -0.1126
   1881 H5'        12.9113   -5.5039   18.8486 H        59   U74       0.0679
   1882 H5''       11.1602   -5.3038   19.1174 H        59   U74       0.0679
   1883 H4'        12.2314   -3.2195   18.2490 H        59   U74       0.1174
   1884 H3'        10.3533   -4.6021   16.2596 H        59   U74       0.0615
   1885 H2'        10.5485   -2.5065   15.0254 H        59   U74       0.0972
   1886 H1'        13.2689   -2.5338   15.3292 H        59   U74       0.1824
   1887 H3         12.5407   -3.6129   10.9619 H        59   U74       0.3154
   1888 H5         12.3669   -7.2777   13.0429 H        59   U74       0.1811
   1889 H6         12.3977   -6.0087   15.0916 H        59   U74       0.2188
   1890 HO2'       10.6866   -0.9925   16.7869 H        59   U74       0.4186
   1891 P           8.1540   -3.4060   17.3250 P.3      60   U75       1.1662
   1892 OP1         7.4190   -2.8160   18.4740 O.co2    60   U75      -0.7760
   1893 OP2         7.9250   -4.8040   16.9440 O.co2    60   U75      -0.7760
   1894 O5'         7.9760   -2.4920   16.0320 O.3      60   U75      -0.4989
   1895 C5'         7.9760   -1.0810   16.1580 C.3      60   U75       0.0558
   1896 C4'         7.8160   -0.4300   14.8080 C.3      60   U75       0.1065
   1897 O4'         8.9370   -0.8170   13.9840 O.3      60   U75      -0.3548
   1898 C3'         6.6150   -0.9040   14.0050 C.3      60   U75       0.2022
   1899 O3'         5.4480   -0.2210   14.4140 O.3      60   U75      -0.5246
   1900 C2'         7.0610   -0.5620   12.5860 C.3      60   U75       0.0670
   1901 O2'         6.9820    0.8160   12.3000 O.3      60   U75      -0.6139
   1902 C1'         8.5290   -0.9880   12.6350 C.3      60   U75       0.0674
   1903 N1          8.7290   -2.4140   12.1860 N.am     60   U75       0.0418
   1904 C2          8.8040   -2.6830   10.8200 C.2      60   U75       0.4687
   1905 O2          8.7140   -1.8290    9.9490 O.2      60   U75      -0.5477
   1906 N3          9.0030   -4.0050   10.5050 N.am     60   U75      -0.3549
   1907 C4          9.0930   -5.0570   11.3920 C.2      60   U75       0.5952
   1908 O4          9.2530   -6.1790   10.9640 O.2      60   U75      -0.5761
   1909 C5          8.9980   -4.7200   12.7890 C.2      60   U75      -0.3635
   1910 C6          8.8250   -3.4340   13.1230 C.2      60   U75      -0.1126
   1911 H5'         7.1502   -0.7786   16.8020 H        60   U75       0.0679
   1912 H5''        8.9171   -0.7591   16.6039 H        60   U75       0.0679
   1913 H4'         7.7887    0.6542   14.9167 H        60   U75       0.1174
   1914 H3'         6.4844   -1.9806   14.1143 H        60   U75       0.0615
   1915 H2'         6.5083   -1.1466   11.8505 H        60   U75       0.0972
   1916 H1'         9.1151   -0.3264   11.9972 H        60   U75       0.1824
   1917 H3          9.0925   -4.2294    9.5243 H        60   U75       0.3154
   1918 H5          9.0646   -5.4849   13.5485 H        60   U75       0.1811
   1919 H6          8.7570   -3.1789   14.1702 H        60   U75       0.2188
   1920 HO2'        6.9438    0.9443   11.3494 H        60   U75       0.4186
   1921 P           4.0140   -0.9360   14.2900 P.3      61   A76       1.1662
   1922 OP1         3.0270   -0.0800   15.0020 O.co2    61   A76      -0.7760
   1923 OP2         4.1350   -2.3570   14.6910 O.co2    61   A76      -0.7760
   1924 O5'         3.7840   -0.8890   12.7140 O.3      61   A76      -0.4989
   1925 C5'         3.3800    0.3130   12.0570 C.3      61   A76       0.0558
   1926 C4'         3.1430    0.0620   10.5740 C.3      61   A76       0.1065
   1927 O4'         4.3590   -0.3590    9.8970 O.3      61   A76      -0.3548
   1928 C3'         2.1440   -1.0350   10.2410 C.3      61   A76       0.2022
   1929 O3'         0.8240   -0.5240   10.4150 O.3      61   A76      -0.5246
   1930 C2'         2.5160   -1.3260    8.7900 C.3      61   A76       0.0670
   1931 O2'         2.0590   -0.3190    7.8930 O.3      61   A76      -0.6139
   1932 C1'         4.0490   -1.3200    8.8960 C.3      61   A76       0.0394
   1933 N9          4.6590   -2.6170    9.2420 N.ar     61   A76      -0.0251
   1934 C8          4.9450   -3.0940   10.4960 C.ar     61   A76       0.2006
   1935 N7          5.4800   -4.2920   10.5060 N.ar     61   A76      -0.6073
   1936 C5          5.5790   -4.6360    9.1660 C.ar     61   A76       0.0515
   1937 C6          6.0670   -5.7760    8.4850 C.ar     61   A76       0.7009
   1938 N6          6.5920   -6.8400    9.0890 N.pl3    61   A76      -0.9019
   1939 N1          6.0000   -5.7990    7.1410 N.ar     61   A76      -0.7615
   1940 C2          5.4930   -4.7440    6.5010 C.ar     61   A76       0.5875
   1941 N3          5.0130   -3.6230    7.0310 N.ar     61   A76      -0.6997
   1942 C4          5.0710   -3.6210    8.3750 C.ar     61   A76       0.3053
   1943 H5'         4.1618    1.0638   12.1723 H        61   A76       0.0679
   1944 H5''        2.4595    0.6794   12.5114 H        61   A76       0.0679
   1945 H4'         2.7992    0.9906   10.1183 H        61   A76       0.1174
   1946 H3'         2.3069   -1.9121   10.8673 H        61   A76       0.0615
   1947 H2'         2.1529   -2.3080    8.4869 H        61   A76       0.0972
   1948 H1'         4.4634   -0.9814    7.9464 H        61   A76       0.2007
   1949 H8          4.7470   -2.5322   11.3969 H        61   A76       0.1553
   1950 H2          5.4696   -4.8081    5.4232 H        61   A76       0.0473
   1951 HO2'        2.6197   -0.3054    7.1139 H        61   A76       0.4186
   1952 H61         7.1924   -7.3352    8.4452 H        61   A76       0.4115
   1953 H62         6.4165   -7.1109   10.0460 H        61   A76       0.4115
   1954 P          -0.3430   -1.4250   11.0430 P.3      62   U77       1.1662
   1955 OP1        -1.4620   -0.4980   11.3440 O.co2    62   U77      -0.7760
   1956 OP2         0.1660   -2.3160   12.1100 O.co2    62   U77      -0.7760
   1957 O5'        -0.7190   -2.3820    9.8210 O.3      62   U77      -0.4989
   1958 C5'        -1.2460   -1.8660    8.5980 C.3      62   U77       0.0558
   1959 C4'        -1.1880   -2.9550    7.5500 C.3      62   U77       0.1065
   1960 O4'         0.2070   -3.2590    7.3160 O.3      62   U77      -0.3548
   1961 C3'        -1.7560   -4.3020    7.9740 C.3      62   U77       0.2022
   1962 O3'        -3.1940   -4.3840    7.9500 O.3      62   U77      -0.5246
   1963 C2'        -1.0980   -5.2200    6.9570 C.3      62   U77       0.0670
   1964 O2'        -1.6850   -5.1870    5.6680 O.3      62   U77      -0.6139
   1965 C1'         0.3100   -4.6280    6.9540 C.3      62   U77       0.0674
   1966 N1          1.2210   -5.3800    7.8760 N.am     62   U77       0.0418
   1967 C2          1.8550   -6.4940    7.3590 C.2      62   U77       0.4687
   1968 O2          1.7110   -6.8800    6.2080 O.2      62   U77      -0.5477
   1969 N3          2.6810   -7.1480    8.2440 N.am     62   U77      -0.3549
   1970 C4          2.9180   -6.8160    9.5660 C.2      62   U77       0.5952
   1971 O4          3.6830   -7.5130   10.2270 O.2      62   U77      -0.5761
   1972 C5          2.2210   -5.6400   10.0360 C.2      62   U77      -0.3635
   1973 C6          1.4090   -4.9780    9.1930 C.2      62   U77      -0.1126
   1974 H5'        -2.2798   -1.5541    8.7464 H        62   U77       0.0679
   1975 H5''       -0.6495   -1.0134    8.2733 H        62   U77       0.0679
   1976 H4'        -1.6616   -2.6181    6.6279 H        62   U77       0.1174
   1977 H3'        -1.3954   -4.5494    8.9724 H        62   U77       0.0615
   1978 H2'        -1.0749   -6.2427    7.3334 H        62   U77       0.0972
   1979 H1'         0.7109   -4.6905    5.9423 H        62   U77       0.1824
   1980 H3          3.1675   -7.9591    7.8898 H        62   U77       0.3154
   1981 H5          2.3509   -5.2972   11.0519 H        62   U77       0.1811
   1982 H6          0.8852   -4.1043    9.5516 H        62   U77       0.2188
   1983 HO2'       -2.0605   -6.0468    5.4648 H        62   U77       0.4186
   1984 P          -3.9150   -5.4930    8.8530 P.3      63   G78       1.1662
   1985 OP1        -5.3560   -5.1740    8.8560 O.co2    63   G78      -0.7760
   1986 OP2        -3.2070   -5.5760   10.1450 O.co2    63   G78      -0.7760
   1987 O5'        -3.6720   -6.8660    8.0810 O.3      63   G78      -0.4989
   1988 C5'        -4.2590   -7.0990    6.8080 C.3      63   G78       0.0558
   1989 C4'        -3.6640   -8.3290    6.1530 C.3      63   G78       0.1065
   1990 O4'        -2.2220   -8.2230    6.0500 O.3      63   G78      -0.3548
   1991 C3'        -3.8750   -9.6240    6.9170 C.3      63   G78       0.2022
   1992 O3'        -5.1890  -10.1110    6.6940 O.3      63   G78      -0.5246
   1993 C2'        -2.7930  -10.4970    6.2880 C.3      63   G78       0.0670
   1994 O2'        -3.1130  -10.9440    4.9860 O.3      63   G78      -0.6139
   1995 C1'        -1.6390   -9.5050    6.2290 C.3      63   G78       0.0191
   1996 N9         -0.8130   -9.5110    7.4400 N.ar     63   G78       0.0492
   1997 C8         -0.8100   -8.5680    8.4410 C.ar     63   G78       0.1374
   1998 N7          0.0360   -8.8270    9.3980 N.ar     63   G78      -0.5709
   1999 C5          0.6330  -10.0200    9.0120 C.ar     63   G78       0.1744
   2000 C6          1.6340  -10.7910    9.6620 C.2      63   G78       0.4770
   2001 O6          2.1910  -10.5440   10.7420 O.2      63   G78      -0.5597
   2002 N1          1.9710  -11.9440    8.9460 N.am     63   G78      -0.4787
   2003 C2          1.3990  -12.3030    7.7420 C.2      63   G78       0.7657
   2004 N2          1.8370  -13.4400    7.1840 N.pl3    63   G78      -0.9672
   2005 N3          0.4620  -11.5810    7.1210 N.2      63   G78      -0.6323
   2006 C4          0.1230  -10.4570    7.8090 C.ar     63   G78       0.1222
   2007 H5'        -5.3321   -7.2449    6.9317 H        63   G78       0.0679
   2008 H5''       -4.0859   -6.2330    6.1691 H        63   G78       0.0679
   2009 H4'        -4.0836   -8.4356    5.1527 H        63   G78       0.1174
   2010 H3'        -3.6890   -9.4816    7.9815 H        63   G78       0.0615
   2011 H2'        -2.5481  -11.3379    6.9369 H        63   G78       0.0972
   2012 H1'        -1.0124   -9.7363    5.3676 H        63   G78       0.2006
   2013 H8         -1.4476   -7.6963    8.4347 H        63   G78       0.1640
   2014 H1          2.6775  -12.5525    9.3343 H        63   G78       0.3424
   2015 H21         2.5481  -13.9883    7.6465 H        63   G78       0.4364
   2016 H22         1.4560  -13.7486    6.3010 H        63   G78       0.4364
   2017 HO2'       -2.3470  -11.3729    4.5976 H        63   G78       0.4186
   2018 P          -5.9490  -10.9900    7.8000 P.3      64   U79       1.1662
   2019 OP1        -7.3530  -11.1330    7.3510 O.co2    64   U79      -0.7760
   2020 OP2        -5.6940  -10.4190    9.1380 O.co2    64   U79      -0.7760
   2021 O5'        -5.2250  -12.4060    7.6930 O.3      64   U79      -0.4989
   2022 C5'        -5.2310  -13.1390    6.4660 C.3      64   U79       0.0558
   2023 C4'        -4.4160  -14.4110    6.5980 C.3      64   U79       0.1065
   2024 O4'        -3.0070  -14.0870    6.7170 O.3      64   U79      -0.3548
   2025 C3'        -4.7250  -15.2330    7.8410 C.3      64   U79       0.2022
   2026 O3'        -5.8590  -16.0720    7.6370 O.3      64   U79      -0.5246
   2027 C2'        -3.4390  -16.0260    8.0250 C.3      64   U79       0.0670
   2028 O2'        -3.4100  -17.1810    7.2120 O.3      64   U79      -0.6139
   2029 C1'        -2.3770  -15.0070    7.5940 C.3      64   U79       0.0674
   2030 N1         -1.7450  -14.2740    8.7550 N.am     64   U79       0.0418
   2031 C2         -0.6650  -14.8470    9.4200 C.2      64   U79       0.4687
   2032 O2         -0.1700  -15.9240    9.1340 O.2      64   U79      -0.5477
   2033 N3         -0.1650  -14.1010   10.4620 N.am     64   U79      -0.3549
   2034 C4         -0.6180  -12.8730   10.9030 C.2      64   U79       0.5952
   2035 O4         -0.0570  -12.3370   11.8530 O.2      64   U79      -0.5761
   2036 C5         -1.7390  -12.3350   10.1700 C.2      64   U79      -0.3635
   2037 C6         -2.2460  -13.0400    9.1490 C.2      64   U79      -0.1126
   2038 H5'        -6.2582  -13.3973    6.2086 H        64   U79       0.0679
   2039 H5''       -4.8067  -12.5203    5.6752 H        64   U79       0.0679
   2040 H4'        -4.5686  -15.0283    5.7127 H        64   U79       0.1174
   2041 H3'        -4.8896  -14.5772    8.6959 H        64   U79       0.0615
   2042 H2'        -3.3048  -16.2950    9.0727 H        64   U79       0.0972
   2043 H1'        -1.5943  -15.5308    7.0454 H        64   U79       0.1824
   2044 H3          0.6205  -14.4950   10.9598 H        64   U79       0.3154
   2045 H5         -2.1628  -11.3790   10.4401 H        64   U79       0.1811
   2046 H6         -3.0845  -12.6287    8.6066 H        64   U79       0.2188
   2047 HO2'       -4.0845  -17.7973    7.5067 H        64   U79       0.4186
   2048 P          -6.8300  -16.3800    8.8690 P.3      65   C80       1.1659
   2049 OP1        -7.9910  -17.1170    8.3260 O.co2    65   C80      -0.7761
   2050 OP2        -7.0670  -15.1330    9.6330 O.co2    65   C80      -0.7761
   2051 O5'        -5.9410  -17.3610    9.7710 O.3      65   C80      -0.4954
   2052 H5'        -6.5109  -17.8537   10.3660 H        65   C80       0.0754
@<TRIPOS>BOND
     1    1    2 1
     2    2    3 1
     3    3    5 1
     4    3    4 1
     5    4    9 1
     6    5    7 1
     7    5    6 1
     8    7    9 1
     9    7    8 1
    10    9   10 1
    11   10   20 ar
    12   10   11 ar
    13   11   12 ar
    14   12   13 ar
    15   13   20 ar
    16   13   14 1
    17   14   15 2
    18   14   16 am
    19   16   17 1
    20   17   18 2
    21   17   19 2
    22   19   20 1
    23   33   35 1
    24   33   34 1
    25   33   36 1
    26   36   37 1
    27   37   38 1
    28   38   40 1
    29   38   39 1
    30   39   44 1
    31   40   42 1
    32   40   41 1
    33   42   43 1
    34   42   44 1
    35   44   45 1
    36   45   46 ar
    37   45   54 ar
    38   46   47 ar
    39   47   48 ar
    40   48   54 ar
    41   48   49 ar
    42   49   50 1
    43   49   51 ar
    44   51   52 ar
    45   52   53 ar
    46   53   54 ar
    47   33    6 1
    48   66   69 1
    49   66   68 1
    50   66   67 1
    51   69   70 1
    52   70   71 1
    53   71   73 1
    54   71   72 1
    55   72   77 1
    56   73   74 1
    57   73   75 1
    58   75   76 1
    59   75   77 1
    60   77   78 1
    61   78   85 1
    62   78   79 am
    63   79   80 2
    64   79   81 1
    65   81   82 2
    66   82   84 2
    67   82   83 2
    68   84   85 2
    69   41   66 1
    70   97   99 1
    71   97   98 1
    72   97  100 1
    73  100  101 1
    74  101  102 1
    75  102  104 1
    76  102  103 1
    77  103  108 1
    78  104  106 1
    79  104  105 1
    80  106  107 1
    81  106  108 1
    82  108  109 1
    83  109  110 ar
    84  109  118 ar
    85  110  111 ar
    86  111  112 ar
    87  112  118 ar
    88  112  113 ar
    89  113  114 1
    90  113  115 ar
    91  115  116 ar
    92  116  117 ar
    93  117  118 ar
    94   74   97 1
    95  130  133 1
    96  130  132 1
    97  130  131 1
    98  133  134 1
    99  134  135 1
   100  135  137 1
   101  135  136 1
   102  136  141 1
   103  137  139 1
   104  137  138 1
   105  139  140 1
   106  139  141 1
   107  141  142 1
   108  142  143 am
   109  142  149 1
   110  143  144 2
   111  143  145 am
   112  145  146 am
   113  146  148 1
   114  146  147 2
   115  148  149 2
   116  105  130 1
   117  160  162 1
   118  160  161 1
   119  160  163 1
   120  163  164 1
   121  164  165 1
   122  165  167 1
   123  165  166 1
   124  166  171 1
   125  167  169 1
   126  167  168 1
   127  169  170 1
   128  169  171 1
   129  171  172 1
   130  172  173 ar
   131  172  181 ar
   132  173  174 ar
   133  174  175 ar
   134  175  181 ar
   135  175  176 ar
   136  176  177 1
   137  176  178 ar
   138  178  179 ar
   139  179  180 ar
   140  180  181 ar
   141  138  160 1
   142  193  196 1
   143  193  195 1
   144  193  194 1
   145  196  197 1
   146  197  198 1
   147  198  200 1
   148  198  199 1
   149  199  204 1
   150  200  202 1
   151  200  201 1
   152  202  203 1
   153  202  204 1
   154  204  205 1
   155  205  206 am
   156  205  212 1
   157  206  207 2
   158  206  208 am
   159  208  209 am
   160  209  211 1
   161  209  210 2
   162  211  212 2
   163  168  193 1
   164  223  225 1
   165  223  224 1
   166  223  226 1
   167  226  227 1
   168  227  228 1
   169  228  230 1
   170  228  229 1
   171  229  234 1
   172  230  232 1
   173  230  231 1
   174  232  233 1
   175  232  234 1
   176  234  235 1
   177  235  236 ar
   178  235  244 ar
   179  236  237 ar
   180  237  238 ar
   181  238  244 ar
   182  238  239 ar
   183  239  240 1
   184  239  241 ar
   185  241  242 ar
   186  242  243 ar
   187  243  244 ar
   188  201  223 1
   189  256  258 1
   190  256  257 1
   191  256  259 1
   192  259  260 1
   193  260  261 1
   194  261  263 1
   195  261  262 1
   196  262  267 1
   197  263  265 1
   198  263  264 1
   199  265  266 1
   200  265  267 1
   201  267  268 1
   202  268  269 ar
   203  268  277 ar
   204  269  270 ar
   205  270  271 ar
   206  271  277 ar
   207  271  272 ar
   208  272  273 1
   209  272  274 ar
   210  274  275 ar
   211  275  276 ar
   212  276  277 ar
   213  231  256 1
   214  289  292 1
   215  289  291 1
   216  289  290 1
   217  292  293 1
   218  293  294 1
   219  294  296 1
   220  294  295 1
   221  295  300 1
   222  296  298 1
   223  296  297 1
   224  298  299 1
   225  298  300 1
   226  300  301 1
   227  301  302 am
   228  301  308 1
   229  302  303 2
   230  302  304 am
   231  304  305 am
   232  305  307 1
   233  305  306 2
   234  307  308 2
   235  264  289 1
   236  319  322 1
   237  319  321 1
   238  319  320 1
   239  322  323 1
   240  323  324 1
   241  324  326 1
   242  324  325 1
   243  325  330 1
   244  326  327 1
   245  326  328 1
   246  328  329 1
   247  328  330 1
   248  330  331 1
   249  331  338 1
   250  331  332 am
   251  332  333 2
   252  332  334 1
   253  334  335 2
   254  335  337 2
   255  335  336 2
   256  337  338 2
   257  297  319 1
   258  350  351 1
   259  350  352 1
   260  350  353 1
   261  353  354 1
   262  354  355 1
   263  355  357 1
   264  355  356 1
   265  356  361 1
   266  357  359 1
   267  357  358 1
   268  359  361 1
   269  359  360 1
   270  361  362 1
   271  362  372 ar
   272  362  363 ar
   273  363  364 ar
   274  364  365 ar
   275  365  372 ar
   276  365  366 1
   277  366  367 2
   278  366  368 am
   279  368  369 1
   280  369  370 2
   281  369  371 2
   282  371  372 1
   283  327  350 1
   284  384  387 1
   285  384  386 1
   286  384  385 1
   287  387  388 1
   288  388  389 1
   289  389  391 1
   290  389  390 1
   291  390  395 1
   292  391  392 1
   293  391  393 1
   294  393  394 1
   295  393  395 1
   296  395  396 1
   297  396  403 1
   298  396  397 am
   299  397  398 2
   300  397  399 1
   301  399  400 2
   302  400  402 2
   303  400  401 2
   304  402  403 2
   305  358  384 1
   306  415  416 1
   307  415  417 1
   308  415  418 1
   309  418  419 1
   310  419  420 1
   311  420  422 1
   312  420  421 1
   313  421  426 1
   314  422  424 1
   315  422  423 1
   316  424  426 1
   317  424  425 1
   318  426  427 1
   319  427  437 ar
   320  427  428 ar
   321  428  429 ar
   322  429  430 ar
   323  430  437 ar
   324  430  431 1
   325  431  432 2
   326  431  433 am
   327  433  434 1
   328  434  435 2
   329  434  436 2
   330  436  437 1
   331  392  415 1
   332  449  452 1
   333  449  451 1
   334  449  450 1
   335  452  453 1
   336  453  454 1
   337  454  456 1
   338  454  455 1
   339  455  460 1
   340  456  458 1
   341  456  457 1
   342  458  459 1
   343  458  460 1
   344  460  461 1
   345  461  462 am
   346  461  468 1
   347  462  463 2
   348  462  464 am
   349  464  465 am
   350  465  467 1
   351  465  466 2
   352  467  468 2
   353  423  449 1
   354  479  480 1
   355  479  481 1
   356  479  482 1
   357  482  483 1
   358  483  484 1
   359  484  486 1
   360  484  485 1
   361  485  490 1
   362  486  488 1
   363  486  487 1
   364  488  490 1
   365  488  489 1
   366  490  491 1
   367  491  501 ar
   368  491  492 ar
   369  492  493 ar
   370  493  494 ar
   371  494  501 ar
   372  494  495 1
   373  495  496 2
   374  495  497 am
   375  497  498 1
   376  498  499 2
   377  498  500 2
   378  500  501 1
   379  457  479 1
   380  513  514 1
   381  513  515 1
   382  513  516 1
   383  516  517 1
   384  517  518 1
   385  518  520 1
   386  518  519 1
   387  519  524 1
   388  520  522 1
   389  520  521 1
   390  522  524 1
   391  522  523 1
   392  524  525 1
   393  525  535 ar
   394  525  526 ar
   395  526  527 ar
   396  527  528 ar
   397  528  535 ar
   398  528  529 1
   399  529  530 2
   400  529  531 am
   401  531  532 1
   402  532  533 2
   403  532  534 2
   404  534  535 1
   405  487  513 1
   406  547  549 1
   407  547  548 1
   408  547  550 1
   409  550  551 1
   410  551  552 1
   411  552  554 1
   412  552  553 1
   413  553  558 1
   414  554  556 1
   415  554  555 1
   416  556  557 1
   417  556  558 1
   418  558  559 1
   419  559  560 ar
   420  559  568 ar
   421  560  561 ar
   422  561  562 ar
   423  562  568 ar
   424  562  563 ar
   425  563  564 1
   426  563  565 ar
   427  565  566 ar
   428  566  567 ar
   429  567  568 ar
   430  521  547 1
   431  580  583 1
   432  580  582 1
   433  580  581 1
   434  583  584 1
   435  584  585 1
   436  585  587 1
   437  585  586 1
   438  586  591 1
   439  587  589 1
   440  587  588 1
   441  589  590 1
   442  589  591 1
   443  591  592 1
   444  592  593 am
   445  592  599 1
   446  593  594 2
   447  593  595 am
   448  595  596 am
   449  596  598 1
   450  596  597 2
   451  598  599 2
   452  555  580 1
   453  610  612 1
   454  610  611 1
   455  610  613 1
   456  613  614 1
   457  614  615 1
   458  615  617 1
   459  615  616 1
   460  616  621 1
   461  617  619 1
   462  617  618 1
   463  619  620 1
   464  619  621 1
   465  621  622 1
   466  622  623 ar
   467  622  631 ar
   468  623  624 ar
   469  624  625 ar
   470  625  631 ar
   471  625  626 ar
   472  626  627 1
   473  626  628 ar
   474  628  629 ar
   475  629  630 ar
   476  630  631 ar
   477  588  610 1
   478  643  646 1
   479  643  645 1
   480  643  644 1
   481  646  647 1
   482  647  648 1
   483  648  650 1
   484  648  649 1
   485  649  654 1
   486  650  652 1
   487  650  651 1
   488  652  653 1
   489  652  654 1
   490  654  655 1
   491  655  656 am
   492  655  662 1
   493  656  657 2
   494  656  658 am
   495  658  659 am
   496  659  661 1
   497  659  660 2
   498  661  662 2
   499  618  643 1
   500  673  674 1
   501  673  675 1
   502  673  676 1
   503  676  677 1
   504  677  678 1
   505  678  680 1
   506  678  679 1
   507  679  684 1
   508  680  682 1
   509  680  681 1
   510  682  684 1
   511  682  683 1
   512  684  685 1
   513  685  695 ar
   514  685  686 ar
   515  686  687 ar
   516  687  688 ar
   517  688  695 ar
   518  688  689 1
   519  689  690 2
   520  689  691 am
   521  691  692 1
   522  692  693 2
   523  692  694 2
   524  694  695 1
   525  651  673 1
   526  707  708 1
   527  707  709 1
   528  707  710 1
   529  710  711 1
   530  711  712 1
   531  712  714 1
   532  712  713 1
   533  713  718 1
   534  714  716 1
   535  714  715 1
   536  716  718 1
   537  716  717 1
   538  718  719 1
   539  719  729 ar
   540  719  720 ar
   541  720  721 ar
   542  721  722 ar
   543  722  729 ar
   544  722  723 1
   545  723  724 2
   546  723  725 am
   547  725  726 1
   548  726  727 2
   549  726  728 2
   550  728  729 1
   551  681  707 1
   552  741  744 1
   553  741  743 1
   554  741  742 1
   555  744  745 1
   556  745  746 1
   557  746  748 1
   558  746  747 1
   559  747  752 1
   560  748  749 1
   561  748  750 1
   562  750  751 1
   563  750  752 1
   564  752  753 1
   565  753  760 1
   566  753  754 am
   567  754  755 2
   568  754  756 1
   569  756  757 2
   570  757  759 2
   571  757  758 2
   572  759  760 2
   573  715  741 1
   574  772  774 1
   575  772  773 1
   576  772  775 1
   577  775  776 1
   578  776  777 1
   579  777  779 1
   580  777  778 1
   581  778  783 1
   582  779  781 1
   583  779  780 1
   584  781  782 1
   585  781  783 1
   586  783  784 1
   587  784  785 ar
   588  784  793 ar
   589  785  786 ar
   590  786  787 ar
   591  787  793 ar
   592  787  788 ar
   593  788  789 1
   594  788  790 ar
   595  790  791 ar
   596  791  792 ar
   597  792  793 ar
   598  749  772 1
   599  805  808 1
   600  805  807 1
   601  805  806 1
   602  808  809 1
   603  809  810 1
   604  810  812 1
   605  810  811 1
   606  811  816 1
   607  812  813 1
   608  812  814 1
   609  814  815 1
   610  814  816 1
   611  816  817 1
   612  817  824 1
   613  817  818 am
   614  818  819 2
   615  818  820 1
   616  820  821 2
   617  821  823 2
   618  821  822 2
   619  823  824 2
   620  780  805 1
   621  836  837 1
   622  836  838 1
   623  836  839 1
   624  839  840 1
   625  840  841 1
   626  841  843 1
   627  841  842 1
   628  842  847 1
   629  843  845 1
   630  843  844 1
   631  845  847 1
   632  845  846 1
   633  847  848 1
   634  848  858 ar
   635  848  849 ar
   636  849  850 ar
   637  850  851 ar
   638  851  858 ar
   639  851  852 1
   640  852  853 2
   641  852  854 am
   642  854  855 1
   643  855  856 2
   644  855  857 2
   645  857  858 1
   646  813  836 1
   647  870  873 1
   648  870  872 1
   649  870  871 1
   650  873  874 1
   651  874  875 1
   652  875  877 1
   653  875  876 1
   654  876  881 1
   655  877  878 1
   656  877  879 1
   657  879  880 1
   658  879  881 1
   659  881  882 1
   660  882  889 1
   661  882  883 am
   662  883  884 2
   663  883  885 1
   664  885  886 2
   665  886  888 2
   666  886  887 2
   667  888  889 2
   668  844  870 1
   669  901  903 1
   670  901  902 1
   671  901  904 1
   672  904  905 1
   673  905  906 1
   674  906  908 1
   675  906  907 1
   676  907  912 1
   677  908  910 1
   678  908  909 1
   679  910  911 1
   680  910  912 1
   681  912  913 1
   682  913  914 ar
   683  913  922 ar
   684  914  915 ar
   685  915  916 ar
   686  916  922 ar
   687  916  917 ar
   688  917  918 1
   689  917  919 ar
   690  919  920 ar
   691  920  921 ar
   692  921  922 ar
   693  878  901 1
   694  934  936 1
   695  934  935 1
   696  934  937 1
   697  937  938 1
   698  938  939 1
   699  939  941 1
   700  939  940 1
   701  940  945 1
   702  941  943 1
   703  941  942 1
   704  943  944 1
   705  943  945 1
   706  945  946 1
   707  946  947 ar
   708  946  955 ar
   709  947  948 ar
   710  948  949 ar
   711  949  955 ar
   712  949  950 ar
   713  950  951 1
   714  950  952 ar
   715  952  953 ar
   716  953  954 ar
   717  954  955 ar
   718  909  934 1
   719  967  968 1
   720  967  969 1
   721  967  970 1
   722  970  971 1
   723  971  972 1
   724  972  974 1
   725  972  973 1
   726  973  978 1
   727  974  976 1
   728  974  975 1
   729  976  978 1
   730  976  977 1
   731  978  979 1
   732  979  989 ar
   733  979  980 ar
   734  980  981 ar
   735  981  982 ar
   736  982  989 ar
   737  982  983 1
   738  983  984 2
   739  983  985 am
   740  985  986 1
   741  986  987 2
   742  986  988 2
   743  988  989 1
   744  942  967 1
   745 1001 1004 1
   746 1001 1003 1
   747 1001 1002 1
   748 1004 1005 1
   749 1005 1006 1
   750 1006 1008 1
   751 1006 1007 1
   752 1007 1012 1
   753 1008 1010 1
   754 1008 1009 1
   755 1010 1011 1
   756 1010 1012 1
   757 1012 1013 1
   758 1013 1014 am
   759 1013 1020 1
   760 1014 1015 2
   761 1014 1016 am
   762 1016 1017 am
   763 1017 1019 1
   764 1017 1018 2
   765 1019 1020 2
   766  975 1001 1
   767 1031 1034 1
   768 1031 1033 1
   769 1031 1032 1
   770 1034 1035 1
   771 1035 1036 1
   772 1036 1038 1
   773 1036 1037 1
   774 1037 1042 1
   775 1038 1040 1
   776 1038 1039 1
   777 1040 1041 1
   778 1040 1042 1
   779 1042 1043 1
   780 1043 1044 am
   781 1043 1050 1
   782 1044 1045 2
   783 1044 1046 am
   784 1046 1047 am
   785 1047 1049 1
   786 1047 1048 2
   787 1049 1050 2
   788 1009 1031 1
   789 1061 1064 1
   790 1061 1063 1
   791 1061 1062 1
   792 1064 1065 1
   793 1065 1066 1
   794 1066 1068 1
   795 1066 1067 1
   796 1067 1072 1
   797 1068 1070 1
   798 1068 1069 1
   799 1070 1071 1
   800 1070 1072 1
   801 1072 1073 1
   802 1073 1074 am
   803 1073 1080 1
   804 1074 1075 2
   805 1074 1076 am
   806 1076 1077 am
   807 1077 1079 1
   808 1077 1078 2
   809 1079 1080 2
   810 1039 1061 1
   811 1091 1094 1
   812 1091 1093 1
   813 1091 1092 1
   814 1094 1095 1
   815 1095 1096 1
   816 1096 1098 1
   817 1096 1097 1
   818 1097 1102 1
   819 1098 1099 1
   820 1098 1100 1
   821 1100 1101 1
   822 1100 1102 1
   823 1102 1103 1
   824 1103 1110 1
   825 1103 1104 am
   826 1104 1105 2
   827 1104 1106 1
   828 1106 1107 2
   829 1107 1109 2
   830 1107 1108 2
   831 1109 1110 2
   832 1069 1091 1
   833 1122 1125 1
   834 1122 1124 1
   835 1122 1123 1
   836 1125 1126 1
   837 1126 1127 1
   838 1127 1129 1
   839 1127 1128 1
   840 1128 1133 1
   841 1129 1131 1
   842 1129 1130 1
   843 1131 1132 1
   844 1131 1133 1
   845 1133 1134 1
   846 1134 1135 am
   847 1134 1141 1
   848 1135 1136 2
   849 1135 1137 am
   850 1137 1138 am
   851 1138 1140 1
   852 1138 1139 2
   853 1140 1141 2
   854 1099 1122 1
   855 1152 1154 1
   856 1152 1153 1
   857 1152 1155 1
   858 1155 1156 1
   859 1156 1157 1
   860 1157 1159 1
   861 1157 1158 1
   862 1158 1163 1
   863 1159 1161 1
   864 1159 1160 1
   865 1161 1162 1
   866 1161 1163 1
   867 1163 1164 1
   868 1164 1165 ar
   869 1164 1173 ar
   870 1165 1166 ar
   871 1166 1167 ar
   872 1167 1173 ar
   873 1167 1168 ar
   874 1168 1169 1
   875 1168 1170 ar
   876 1170 1171 ar
   877 1171 1172 ar
   878 1172 1173 ar
   879 1130 1152 1
   880 1185 1188 1
   881 1185 1187 1
   882 1185 1186 1
   883 1188 1189 1
   884 1189 1190 1
   885 1190 1192 1
   886 1190 1191 1
   887 1191 1196 1
   888 1192 1193 1
   889 1192 1194 1
   890 1194 1195 1
   891 1194 1196 1
   892 1196 1197 1
   893 1197 1204 1
   894 1197 1198 am
   895 1198 1199 2
   896 1198 1200 1
   897 1200 1201 2
   898 1201 1203 2
   899 1201 1202 2
   900 1203 1204 2
   901 1160 1185 1
   902 1216 1219 1
   903 1216 1218 1
   904 1216 1217 1
   905 1219 1220 1
   906 1220 1221 1
   907 1221 1223 1
   908 1221 1222 1
   909 1222 1227 1
   910 1223 1224 1
   911 1223 1225 1
   912 1225 1226 1
   913 1225 1227 1
   914 1227 1228 1
   915 1228 1235 1
   916 1228 1229 am
   917 1229 1230 2
   918 1229 1231 1
   919 1231 1232 2
   920 1232 1234 2
   921 1232 1233 2
   922 1234 1235 2
   923 1193 1216 1
   924 1247 1248 1
   925 1247 1249 1
   926 1247 1250 1
   927 1250 1251 1
   928 1251 1252 1
   929 1252 1254 1
   930 1252 1253 1
   931 1253 1258 1
   932 1254 1256 1
   933 1254 1255 1
   934 1256 1258 1
   935 1256 1257 1
   936 1258 1259 1
   937 1259 1269 ar
   938 1259 1260 ar
   939 1260 1261 ar
   940 1261 1262 ar
   941 1262 1269 ar
   942 1262 1263 1
   943 1263 1264 2
   944 1263 1265 am
   945 1265 1266 1
   946 1266 1267 2
   947 1266 1268 2
   948 1268 1269 1
   949 1224 1247 1
   950 1281 1282 1
   951 1281 1283 1
   952 1281 1284 1
   953 1284 1285 1
   954 1285 1286 1
   955 1286 1288 1
   956 1286 1287 1
   957 1287 1292 1
   958 1288 1290 1
   959 1288 1289 1
   960 1290 1292 1
   961 1290 1291 1
   962 1292 1293 1
   963 1293 1303 ar
   964 1293 1294 ar
   965 1294 1295 ar
   966 1295 1296 ar
   967 1296 1303 ar
   968 1296 1297 1
   969 1297 1298 2
   970 1297 1299 am
   971 1299 1300 1
   972 1300 1301 2
   973 1300 1302 2
   974 1302 1303 1
   975 1255 1281 1
   976 1315 1316 1
   977 1315 1317 1
   978 1315 1318 1
   979 1318 1319 1
   980 1319 1320 1
   981 1320 1322 1
   982 1320 1321 1
   983 1321 1326 1
   984 1322 1324 1
   985 1322 1323 1
   986 1324 1326 1
   987 1324 1325 1
   988 1326 1327 1
   989 1327 1337 ar
   990 1327 1328 ar
   991 1328 1329 ar
   992 1329 1330 ar
   993 1330 1337 ar
   994 1330 1331 1
   995 1331 1332 2
   996 1331 1333 am
   997 1333 1334 1
   998 1334 1335 2
   999 1334 1336 2
  1000 1336 1337 1
  1001 1289 1315 1
  1002 1349 1352 1
  1003 1349 1351 1
  1004 1349 1350 1
  1005 1352 1353 1
  1006 1353 1354 1
  1007 1354 1356 1
  1008 1354 1355 1
  1009 1355 1360 1
  1010 1356 1357 1
  1011 1356 1358 1
  1012 1358 1359 1
  1013 1358 1360 1
  1014 1360 1361 1
  1015 1361 1368 1
  1016 1361 1362 am
  1017 1362 1363 2
  1018 1362 1364 1
  1019 1364 1365 2
  1020 1365 1367 2
  1021 1365 1366 2
  1022 1367 1368 2
  1023 1323 1349 1
  1024 1380 1382 1
  1025 1380 1381 1
  1026 1380 1383 1
  1027 1383 1384 1
  1028 1384 1385 1
  1029 1385 1387 1
  1030 1385 1386 1
  1031 1386 1391 1
  1032 1387 1389 1
  1033 1387 1388 1
  1034 1389 1390 1
  1035 1389 1391 1
  1036 1391 1392 1
  1037 1392 1393 ar
  1038 1392 1401 ar
  1039 1393 1394 ar
  1040 1394 1395 ar
  1041 1395 1401 ar
  1042 1395 1396 ar
  1043 1396 1397 1
  1044 1396 1398 ar
  1045 1398 1399 ar
  1046 1399 1400 ar
  1047 1400 1401 ar
  1048 1357 1380 1
  1049 1413 1416 1
  1050 1413 1415 1
  1051 1413 1414 1
  1052 1416 1417 1
  1053 1417 1418 1
  1054 1418 1420 1
  1055 1418 1419 1
  1056 1419 1424 1
  1057 1420 1421 1
  1058 1420 1422 1
  1059 1422 1423 1
  1060 1422 1424 1
  1061 1424 1425 1
  1062 1425 1432 1
  1063 1425 1426 am
  1064 1426 1427 2
  1065 1426 1428 1
  1066 1428 1429 2
  1067 1429 1431 2
  1068 1429 1430 2
  1069 1431 1432 2
  1070 1388 1413 1
  1071 1444 1447 1
  1072 1444 1446 1
  1073 1444 1445 1
  1074 1447 1448 1
  1075 1448 1449 1
  1076 1449 1451 1
  1077 1449 1450 1
  1078 1450 1455 1
  1079 1451 1452 1
  1080 1451 1453 1
  1081 1453 1454 1
  1082 1453 1455 1
  1083 1455 1456 1
  1084 1456 1463 1
  1085 1456 1457 am
  1086 1457 1458 2
  1087 1457 1459 1
  1088 1459 1460 2
  1089 1460 1462 2
  1090 1460 1461 2
  1091 1462 1463 2
  1092 1421 1444 1
  1093 1475 1476 1
  1094 1475 1477 1
  1095 1475 1478 1
  1096 1478 1479 1
  1097 1479 1480 1
  1098 1480 1482 1
  1099 1480 1481 1
  1100 1481 1486 1
  1101 1482 1484 1
  1102 1482 1483 1
  1103 1484 1486 1
  1104 1484 1485 1
  1105 1486 1487 1
  1106 1487 1497 ar
  1107 1487 1488 ar
  1108 1488 1489 ar
  1109 1489 1490 ar
  1110 1490 1497 ar
  1111 1490 1491 1
  1112 1491 1492 2
  1113 1491 1493 am
  1114 1493 1494 1
  1115 1494 1495 2
  1116 1494 1496 2
  1117 1496 1497 1
  1118 1452 1475 1
  1119 1509 1512 1
  1120 1509 1511 1
  1121 1509 1510 1
  1122 1512 1513 1
  1123 1513 1514 1
  1124 1514 1516 1
  1125 1514 1515 1
  1126 1515 1520 1
  1127 1516 1518 1
  1128 1516 1517 1
  1129 1518 1519 1
  1130 1518 1520 1
  1131 1520 1521 1
  1132 1521 1522 am
  1133 1521 1528 1
  1134 1522 1523 2
  1135 1522 1524 am
  1136 1524 1525 am
  1137 1525 1527 1
  1138 1525 1526 2
  1139 1527 1528 2
  1140 1483 1509 1
  1141 1539 1541 1
  1142 1539 1540 1
  1143 1539 1542 1
  1144 1542 1543 1
  1145 1543 1544 1
  1146 1544 1546 1
  1147 1544 1545 1
  1148 1545 1550 1
  1149 1546 1548 1
  1150 1546 1547 1
  1151 1548 1549 1
  1152 1548 1550 1
  1153 1550 1551 1
  1154 1551 1552 ar
  1155 1551 1560 ar
  1156 1552 1553 ar
  1157 1553 1554 ar
  1158 1554 1560 ar
  1159 1554 1555 ar
  1160 1555 1556 1
  1161 1555 1557 ar
  1162 1557 1558 ar
  1163 1558 1559 ar
  1164 1559 1560 ar
  1165 1517 1539 1
  1166 1572 1574 1
  1167 1572 1573 1
  1168 1572 1575 1
  1169 1575 1576 1
  1170 1576 1577 1
  1171 1577 1579 1
  1172 1577 1578 1
  1173 1578 1583 1
  1174 1579 1581 1
  1175 1579 1580 1
  1176 1581 1582 1
  1177 1581 1583 1
  1178 1583 1584 1
  1179 1584 1585 ar
  1180 1584 1593 ar
  1181 1585 1586 ar
  1182 1586 1587 ar
  1183 1587 1593 ar
  1184 1587 1588 ar
  1185 1588 1589 1
  1186 1588 1590 ar
  1187 1590 1591 ar
  1188 1591 1592 ar
  1189 1592 1593 ar
  1190 1547 1572 1
  1191 1605 1607 1
  1192 1605 1606 1
  1193 1605 1608 1
  1194 1608 1609 1
  1195 1609 1610 1
  1196 1610 1612 1
  1197 1610 1611 1
  1198 1611 1616 1
  1199 1612 1614 1
  1200 1612 1613 1
  1201 1614 1615 1
  1202 1614 1616 1
  1203 1616 1617 1
  1204 1617 1618 ar
  1205 1617 1626 ar
  1206 1618 1619 ar
  1207 1619 1620 ar
  1208 1620 1626 ar
  1209 1620 1621 ar
  1210 1621 1622 1
  1211 1621 1623 ar
  1212 1623 1624 ar
  1213 1624 1625 ar
  1214 1625 1626 ar
  1215 1580 1605 1
  1216 1638 1641 1
  1217 1638 1640 1
  1218 1638 1639 1
  1219 1641 1642 1
  1220 1642 1643 1
  1221 1643 1645 1
  1222 1643 1644 1
  1223 1644 1649 1
  1224 1645 1647 1
  1225 1645 1646 1
  1226 1647 1648 1
  1227 1647 1649 1
  1228 1649 1650 1
  1229 1650 1651 am
  1230 1650 1657 1
  1231 1651 1652 2
  1232 1651 1653 am
  1233 1653 1654 am
  1234 1654 1656 1
  1235 1654 1655 2
  1236 1656 1657 2
  1237 1613 1638 1
  1238 1668 1669 1
  1239 1668 1670 1
  1240 1668 1671 1
  1241 1671 1672 1
  1242 1672 1673 1
  1243 1673 1675 1
  1244 1673 1674 1
  1245 1674 1679 1
  1246 1675 1677 1
  1247 1675 1676 1
  1248 1677 1679 1
  1249 1677 1678 1
  1250 1679 1680 1
  1251 1680 1690 ar
  1252 1680 1681 ar
  1253 1681 1682 ar
  1254 1682 1683 ar
  1255 1683 1690 ar
  1256 1683 1684 1
  1257 1684 1685 2
  1258 1684 1686 am
  1259 1686 1687 1
  1260 1687 1688 2
  1261 1687 1689 2
  1262 1689 1690 1
  1263 1646 1668 1
  1264 1702 1705 1
  1265 1702 1704 1
  1266 1702 1703 1
  1267 1705 1706 1
  1268 1706 1707 1
  1269 1707 1709 1
  1270 1707 1708 1
  1271 1708 1713 1
  1272 1709 1711 1
  1273 1709 1710 1
  1274 1711 1712 1
  1275 1711 1713 1
  1276 1713 1714 1
  1277 1714 1715 am
  1278 1714 1721 1
  1279 1715 1716 2
  1280 1715 1717 am
  1281 1717 1718 am
  1282 1718 1720 1
  1283 1718 1719 2
  1284 1720 1721 2
  1285 1676 1702 1
  1286 1732 1735 1
  1287 1732 1734 1
  1288 1732 1733 1
  1289 1735 1736 1
  1290 1736 1737 1
  1291 1737 1739 1
  1292 1737 1738 1
  1293 1738 1743 1
  1294 1739 1740 1
  1295 1739 1741 1
  1296 1741 1742 1
  1297 1741 1743 1
  1298 1743 1744 1
  1299 1744 1751 1
  1300 1744 1745 am
  1301 1745 1746 2
  1302 1745 1747 1
  1303 1747 1748 2
  1304 1748 1750 2
  1305 1748 1749 2
  1306 1750 1751 2
  1307 1710 1732 1
  1308 1763 1766 1
  1309 1763 1765 1
  1310 1763 1764 1
  1311 1766 1767 1
  1312 1767 1768 1
  1313 1768 1770 1
  1314 1768 1769 1
  1315 1769 1774 1
  1316 1770 1771 1
  1317 1770 1772 1
  1318 1772 1773 1
  1319 1772 1774 1
  1320 1774 1775 1
  1321 1775 1782 1
  1322 1775 1776 am
  1323 1776 1777 2
  1324 1776 1778 1
  1325 1778 1779 2
  1326 1779 1781 2
  1327 1779 1780 2
  1328 1781 1782 2
  1329 1740 1763 1
  1330 1794 1795 1
  1331 1794 1796 1
  1332 1794 1797 1
  1333 1797 1798 1
  1334 1798 1799 1
  1335 1799 1801 1
  1336 1799 1800 1
  1337 1800 1805 1
  1338 1801 1803 1
  1339 1801 1802 1
  1340 1803 1805 1
  1341 1803 1804 1
  1342 1805 1806 1
  1343 1806 1816 ar
  1344 1806 1807 ar
  1345 1807 1808 ar
  1346 1808 1809 ar
  1347 1809 1816 ar
  1348 1809 1810 1
  1349 1810 1811 2
  1350 1810 1812 am
  1351 1812 1813 1
  1352 1813 1814 2
  1353 1813 1815 2
  1354 1815 1816 1
  1355 1771 1794 1
  1356 1828 1830 1
  1357 1828 1829 1
  1358 1828 1831 1
  1359 1831 1832 1
  1360 1832 1833 1
  1361 1833 1835 1
  1362 1833 1834 1
  1363 1834 1839 1
  1364 1835 1837 1
  1365 1835 1836 1
  1366 1837 1838 1
  1367 1837 1839 1
  1368 1839 1840 1
  1369 1840 1841 ar
  1370 1840 1849 ar
  1371 1841 1842 ar
  1372 1842 1843 ar
  1373 1843 1849 ar
  1374 1843 1844 ar
  1375 1844 1845 1
  1376 1844 1846 ar
  1377 1846 1847 ar
  1378 1847 1848 ar
  1379 1848 1849 ar
  1380 1802 1828 1
  1381 1861 1864 1
  1382 1861 1863 1
  1383 1861 1862 1
  1384 1864 1865 1
  1385 1865 1866 1
  1386 1866 1868 1
  1387 1866 1867 1
  1388 1867 1872 1
  1389 1868 1870 1
  1390 1868 1869 1
  1391 1870 1871 1
  1392 1870 1872 1
  1393 1872 1873 1
  1394 1873 1874 am
  1395 1873 1880 1
  1396 1874 1875 2
  1397 1874 1876 am
  1398 1876 1877 am
  1399 1877 1879 1
  1400 1877 1878 2
  1401 1879 1880 2
  1402 1836 1861 1
  1403 1891 1894 1
  1404 1891 1893 1
  1405 1891 1892 1
  1406 1894 1895 1
  1407 1895 1896 1
  1408 1896 1898 1
  1409 1896 1897 1
  1410 1897 1902 1
  1411 1898 1900 1
  1412 1898 1899 1
  1413 1900 1901 1
  1414 1900 1902 1
  1415 1902 1903 1
  1416 1903 1904 am
  1417 1903 1910 1
  1418 1904 1905 2
  1419 1904 1906 am
  1420 1906 1907 am
  1421 1907 1909 1
  1422 1907 1908 2
  1423 1909 1910 2
  1424 1869 1891 1
  1425 1921 1923 1
  1426 1921 1922 1
  1427 1921 1924 1
  1428 1924 1925 1
  1429 1925 1926 1
  1430 1926 1928 1
  1431 1926 1927 1
  1432 1927 1932 1
  1433 1928 1930 1
  1434 1928 1929 1
  1435 1930 1931 1
  1436 1930 1932 1
  1437 1932 1933 1
  1438 1933 1934 ar
  1439 1933 1942 ar
  1440 1934 1935 ar
  1441 1935 1936 ar
  1442 1936 1942 ar
  1443 1936 1937 ar
  1444 1937 1938 1
  1445 1937 1939 ar
  1446 1939 1940 ar
  1447 1940 1941 ar
  1448 1941 1942 ar
  1449 1899 1921 1
  1450 1954 1957 1
  1451 1954 1956 1
  1452 1954 1955 1
  1453 1957 1958 1
  1454 1958 1959 1
  1455 1959 1961 1
  1456 1959 1960 1
  1457 1960 1965 1
  1458 1961 1963 1
  1459 1961 1962 1
  1460 1963 1964 1
  1461 1963 1965 1
  1462 1965 1966 1
  1463 1966 1967 am
  1464 1966 1973 1
  1465 1967 1968 2
  1466 1967 1969 am
  1467 1969 1970 am
  1468 1970 1972 1
  1469 1970 1971 2
  1470 1972 1973 2
  1471 1929 1954 1
  1472 1984 1985 1
  1473 1984 1986 1
  1474 1984 1987 1
  1475 1987 1988 1
  1476 1988 1989 1
  1477 1989 1991 1
  1478 1989 1990 1
  1479 1990 1995 1
  1480 1991 1993 1
  1481 1991 1992 1
  1482 1993 1995 1
  1483 1993 1994 1
  1484 1995 1996 1
  1485 1996 2006 ar
  1486 1996 1997 ar
  1487 1997 1998 ar
  1488 1998 1999 ar
  1489 1999 2006 ar
  1490 1999 2000 1
  1491 2000 2001 2
  1492 2000 2002 am
  1493 2002 2003 1
  1494 2003 2004 2
  1495 2003 2005 2
  1496 2005 2006 1
  1497 1962 1984 1
  1498 2018 2021 1
  1499 2018 2020 1
  1500 2018 2019 1
  1501 2021 2022 1
  1502 2022 2023 1
  1503 2023 2025 1
  1504 2023 2024 1
  1505 2024 2029 1
  1506 2025 2027 1
  1507 2025 2026 1
  1508 2027 2028 1
  1509 2027 2029 1
  1510 2029 2030 1
  1511 2030 2031 am
  1512 2030 2037 1
  1513 2031 2032 2
  1514 2031 2033 am
  1515 2033 2034 am
  1516 2034 2036 1
  1517 2034 2035 2
  1518 2036 2037 2
  1519 1992 2018 1
  1520 2048 2049 1
  1521 2048 2050 1
  1522 2048 2051 1
  1523 2026 2048 1
  1524   21    2 1
  1525   22    2 1
  1526   23    3 1
  1527   24    5 1
  1528   25    7 1
  1529   26    9 1
  1530   27   11 1
  1531   28   16 1
  1532   55   37 1
  1533   56   37 1
  1534   57   38 1
  1535   58   40 1
  1536   59   42 1
  1537   60   44 1
  1538   61   46 1
  1539   62   52 1
  1540   86   70 1
  1541   87   70 1
  1542   88   71 1
  1543   89   73 1
  1544   90   75 1
  1545   91   77 1
  1546   92   84 1
  1547   93   85 1
  1548  119  101 1
  1549  120  101 1
  1550  121  102 1
  1551  122  104 1
  1552  123  106 1
  1553  124  108 1
  1554  125  110 1
  1555  126  116 1
  1556  150  134 1
  1557  151  134 1
  1558  152  135 1
  1559  153  137 1
  1560  154  139 1
  1561  155  141 1
  1562  156  145 1
  1563  157  148 1
  1564  158  149 1
  1565  182  164 1
  1566  183  164 1
  1567  184  165 1
  1568  185  167 1
  1569  186  169 1
  1570  187  171 1
  1571  188  173 1
  1572  189  179 1
  1573  213  197 1
  1574  214  197 1
  1575  215  198 1
  1576  216  200 1
  1577  217  202 1
  1578  218  204 1
  1579  219  208 1
  1580  220  211 1
  1581  221  212 1
  1582  245  227 1
  1583  246  227 1
  1584  247  228 1
  1585  248  230 1
  1586  249  232 1
  1587  250  234 1
  1588  251  236 1
  1589  252  242 1
  1590  278  260 1
  1591  279  260 1
  1592  280  261 1
  1593  281  263 1
  1594  282  265 1
  1595  283  267 1
  1596  284  269 1
  1597  285  275 1
  1598  309  293 1
  1599  310  293 1
  1600  311  294 1
  1601  312  296 1
  1602  313  298 1
  1603  314  300 1
  1604  315  304 1
  1605  316  307 1
  1606  317  308 1
  1607  339  323 1
  1608  340  323 1
  1609  341  324 1
  1610  342  326 1
  1611  343  328 1
  1612  344  330 1
  1613  345  337 1
  1614  346  338 1
  1615  373  354 1
  1616  374  354 1
  1617  375  355 1
  1618  376  357 1
  1619  377  359 1
  1620  378  361 1
  1621  379  363 1
  1622  380  368 1
  1623  404  388 1
  1624  405  388 1
  1625  406  389 1
  1626  407  391 1
  1627  408  393 1
  1628  409  395 1
  1629  410  402 1
  1630  411  403 1
  1631  438  419 1
  1632  439  419 1
  1633  440  420 1
  1634  441  422 1
  1635  442  424 1
  1636  443  426 1
  1637  444  428 1
  1638  445  433 1
  1639  469  453 1
  1640  470  453 1
  1641  471  454 1
  1642  472  456 1
  1643  473  458 1
  1644  474  460 1
  1645  475  464 1
  1646  476  467 1
  1647  477  468 1
  1648  502  483 1
  1649  503  483 1
  1650  504  484 1
  1651  505  486 1
  1652  506  488 1
  1653  507  490 1
  1654  508  492 1
  1655  509  497 1
  1656  536  517 1
  1657  537  517 1
  1658  538  518 1
  1659  539  520 1
  1660  540  522 1
  1661  541  524 1
  1662  542  526 1
  1663  543  531 1
  1664  569  551 1
  1665  570  551 1
  1666  571  552 1
  1667  572  554 1
  1668  573  556 1
  1669  574  558 1
  1670  575  560 1
  1671  576  566 1
  1672  600  584 1
  1673  601  584 1
  1674  602  585 1
  1675  603  587 1
  1676  604  589 1
  1677  605  591 1
  1678  606  595 1
  1679  607  598 1
  1680  608  599 1
  1681  632  614 1
  1682  633  614 1
  1683  634  615 1
  1684  635  617 1
  1685  636  619 1
  1686  637  621 1
  1687  638  623 1
  1688  639  629 1
  1689  663  647 1
  1690  664  647 1
  1691  665  648 1
  1692  666  650 1
  1693  667  652 1
  1694  668  654 1
  1695  669  658 1
  1696  670  661 1
  1697  671  662 1
  1698  696  677 1
  1699  697  677 1
  1700  698  678 1
  1701  699  680 1
  1702  700  682 1
  1703  701  684 1
  1704  702  686 1
  1705  703  691 1
  1706  730  711 1
  1707  731  711 1
  1708  732  712 1
  1709  733  714 1
  1710  734  716 1
  1711  735  718 1
  1712  736  720 1
  1713  737  725 1
  1714  761  745 1
  1715  762  745 1
  1716  763  746 1
  1717  764  748 1
  1718  765  750 1
  1719  766  752 1
  1720  767  759 1
  1721  768  760 1
  1722  794  776 1
  1723  795  776 1
  1724  796  777 1
  1725  797  779 1
  1726  798  781 1
  1727  799  783 1
  1728  800  785 1
  1729  801  791 1
  1730  825  809 1
  1731  826  809 1
  1732  827  810 1
  1733  828  812 1
  1734  829  814 1
  1735  830  816 1
  1736  831  823 1
  1737  832  824 1
  1738  859  840 1
  1739  860  840 1
  1740  861  841 1
  1741  862  843 1
  1742  863  845 1
  1743  864  847 1
  1744  865  849 1
  1745  866  854 1
  1746  890  874 1
  1747  891  874 1
  1748  892  875 1
  1749  893  877 1
  1750  894  879 1
  1751  895  881 1
  1752  896  888 1
  1753  897  889 1
  1754  923  905 1
  1755  924  905 1
  1756  925  906 1
  1757  926  908 1
  1758  927  910 1
  1759  928  912 1
  1760  929  914 1
  1761  930  920 1
  1762  956  938 1
  1763  957  938 1
  1764  958  939 1
  1765  959  941 1
  1766  960  943 1
  1767  961  945 1
  1768  962  947 1
  1769  963  953 1
  1770  990  971 1
  1771  991  971 1
  1772  992  972 1
  1773  993  974 1
  1774  994  976 1
  1775  995  978 1
  1776  996  980 1
  1777  997  985 1
  1778 1021 1005 1
  1779 1022 1005 1
  1780 1023 1006 1
  1781 1024 1008 1
  1782 1025 1010 1
  1783 1026 1012 1
  1784 1027 1016 1
  1785 1028 1019 1
  1786 1029 1020 1
  1787 1051 1035 1
  1788 1052 1035 1
  1789 1053 1036 1
  1790 1054 1038 1
  1791 1055 1040 1
  1792 1056 1042 1
  1793 1057 1046 1
  1794 1058 1049 1
  1795 1059 1050 1
  1796 1081 1065 1
  1797 1082 1065 1
  1798 1083 1066 1
  1799 1084 1068 1
  1800 1085 1070 1
  1801 1086 1072 1
  1802 1087 1076 1
  1803 1088 1079 1
  1804 1089 1080 1
  1805 1111 1095 1
  1806 1112 1095 1
  1807 1113 1096 1
  1808 1114 1098 1
  1809 1115 1100 1
  1810 1116 1102 1
  1811 1117 1109 1
  1812 1118 1110 1
  1813 1142 1126 1
  1814 1143 1126 1
  1815 1144 1127 1
  1816 1145 1129 1
  1817 1146 1131 1
  1818 1147 1133 1
  1819 1148 1137 1
  1820 1149 1140 1
  1821 1150 1141 1
  1822 1174 1156 1
  1823 1175 1156 1
  1824 1176 1157 1
  1825 1177 1159 1
  1826 1178 1161 1
  1827 1179 1163 1
  1828 1180 1165 1
  1829 1181 1171 1
  1830 1205 1189 1
  1831 1206 1189 1
  1832 1207 1190 1
  1833 1208 1192 1
  1834 1209 1194 1
  1835 1210 1196 1
  1836 1211 1203 1
  1837 1212 1204 1
  1838 1236 1220 1
  1839 1237 1220 1
  1840 1238 1221 1
  1841 1239 1223 1
  1842 1240 1225 1
  1843 1241 1227 1
  1844 1242 1234 1
  1845 1243 1235 1
  1846 1270 1251 1
  1847 1271 1251 1
  1848 1272 1252 1
  1849 1273 1254 1
  1850 1274 1256 1
  1851 1275 1258 1
  1852 1276 1260 1
  1853 1277 1265 1
  1854 1304 1285 1
  1855 1305 1285 1
  1856 1306 1286 1
  1857 1307 1288 1
  1858 1308 1290 1
  1859 1309 1292 1
  1860 1310 1294 1
  1861 1311 1299 1
  1862 1338 1319 1
  1863 1339 1319 1
  1864 1340 1320 1
  1865 1341 1322 1
  1866 1342 1324 1
  1867 1343 1326 1
  1868 1344 1328 1
  1869 1345 1333 1
  1870 1369 1353 1
  1871 1370 1353 1
  1872 1371 1354 1
  1873 1372 1356 1
  1874 1373 1358 1
  1875 1374 1360 1
  1876 1375 1367 1
  1877 1376 1368 1
  1878 1402 1384 1
  1879 1403 1384 1
  1880 1404 1385 1
  1881 1405 1387 1
  1882 1406 1389 1
  1883 1407 1391 1
  1884 1408 1393 1
  1885 1409 1399 1
  1886 1433 1417 1
  1887 1434 1417 1
  1888 1435 1418 1
  1889 1436 1420 1
  1890 1437 1422 1
  1891 1438 1424 1
  1892 1439 1431 1
  1893 1440 1432 1
  1894 1464 1448 1
  1895 1465 1448 1
  1896 1466 1449 1
  1897 1467 1451 1
  1898 1468 1453 1
  1899 1469 1455 1
  1900 1470 1462 1
  1901 1471 1463 1
  1902 1498 1479 1
  1903 1499 1479 1
  1904 1500 1480 1
  1905 1501 1482 1
  1906 1502 1484 1
  1907 1503 1486 1
  1908 1504 1488 1
  1909 1505 1493 1
  1910 1529 1513 1
  1911 1530 1513 1
  1912 1531 1514 1
  1913 1532 1516 1
  1914 1533 1518 1
  1915 1534 1520 1
  1916 1535 1524 1
  1917 1536 1527 1
  1918 1537 1528 1
  1919 1561 1543 1
  1920 1562 1543 1
  1921 1563 1544 1
  1922 1564 1546 1
  1923 1565 1548 1
  1924 1566 1550 1
  1925 1567 1552 1
  1926 1568 1558 1
  1927 1594 1576 1
  1928 1595 1576 1
  1929 1596 1577 1
  1930 1597 1579 1
  1931 1598 1581 1
  1932 1599 1583 1
  1933 1600 1585 1
  1934 1601 1591 1
  1935 1627 1609 1
  1936 1628 1609 1
  1937 1629 1610 1
  1938 1630 1612 1
  1939 1631 1614 1
  1940 1632 1616 1
  1941 1633 1618 1
  1942 1634 1624 1
  1943 1658 1642 1
  1944 1659 1642 1
  1945 1660 1643 1
  1946 1661 1645 1
  1947 1662 1647 1
  1948 1663 1649 1
  1949 1664 1653 1
  1950 1665 1656 1
  1951 1666 1657 1
  1952 1691 1672 1
  1953 1692 1672 1
  1954 1693 1673 1
  1955 1694 1675 1
  1956 1695 1677 1
  1957 1696 1679 1
  1958 1697 1681 1
  1959 1698 1686 1
  1960 1722 1706 1
  1961 1723 1706 1
  1962 1724 1707 1
  1963 1725 1709 1
  1964 1726 1711 1
  1965 1727 1713 1
  1966 1728 1717 1
  1967 1729 1720 1
  1968 1730 1721 1
  1969 1752 1736 1
  1970 1753 1736 1
  1971 1754 1737 1
  1972 1755 1739 1
  1973 1756 1741 1
  1974 1757 1743 1
  1975 1758 1750 1
  1976 1759 1751 1
  1977 1783 1767 1
  1978 1784 1767 1
  1979 1785 1768 1
  1980 1786 1770 1
  1981 1787 1772 1
  1982 1788 1774 1
  1983 1789 1781 1
  1984 1790 1782 1
  1985 1817 1798 1
  1986 1818 1798 1
  1987 1819 1799 1
  1988 1820 1801 1
  1989 1821 1803 1
  1990 1822 1805 1
  1991 1823 1807 1
  1992 1824 1812 1
  1993 1850 1832 1
  1994 1851 1832 1
  1995 1852 1833 1
  1996 1853 1835 1
  1997 1854 1837 1
  1998 1855 1839 1
  1999 1856 1841 1
  2000 1857 1847 1
  2001 1881 1865 1
  2002 1882 1865 1
  2003 1883 1866 1
  2004 1884 1868 1
  2005 1885 1870 1
  2006 1886 1872 1
  2007 1887 1876 1
  2008 1888 1879 1
  2009 1889 1880 1
  2010 1911 1895 1
  2011 1912 1895 1
  2012 1913 1896 1
  2013 1914 1898 1
  2014 1915 1900 1
  2015 1916 1902 1
  2016 1917 1906 1
  2017 1918 1909 1
  2018 1919 1910 1
  2019 1943 1925 1
  2020 1944 1925 1
  2021 1945 1926 1
  2022 1946 1928 1
  2023 1947 1930 1
  2024 1948 1932 1
  2025 1949 1934 1
  2026 1950 1940 1
  2027 1974 1958 1
  2028 1975 1958 1
  2029 1976 1959 1
  2030 1977 1961 1
  2031 1978 1963 1
  2032 1979 1965 1
  2033 1980 1969 1
  2034 1981 1972 1
  2035 1982 1973 1
  2036 2007 1988 1
  2037 2008 1988 1
  2038 2009 1989 1
  2039 2010 1991 1
  2040 2011 1993 1
  2041 2012 1995 1
  2042 2013 1997 1
  2043 2014 2002 1
  2044 2038 2022 1
  2045 2039 2022 1
  2046 2040 2023 1
  2047 2041 2025 1
  2048 2042 2027 1
  2049 2043 2029 1
  2050 2044 2033 1
  2051 2045 2036 1
  2052 2046 2037 1
  2053   29   18 1
  2054   30   18 1
  2055   94   83 1
  2056   95   83 1
  2057  347  336 1
  2058  348  336 1
  2059  381  370 1
  2060  382  370 1
  2061  412  401 1
  2062  413  401 1
  2063  446  435 1
  2064  447  435 1
  2065  510  499 1
  2066  511  499 1
  2067  544  533 1
  2068  545  533 1
  2069  704  693 1
  2070  705  693 1
  2071  738  727 1
  2072  739  727 1
  2073  769  758 1
  2074  770  758 1
  2075  833  822 1
  2076  834  822 1
  2077  867  856 1
  2078  868  856 1
  2079  898  887 1
  2080  899  887 1
  2081  998  987 1
  2082  999  987 1
  2083 1119 1108 1
  2084 1120 1108 1
  2085 1213 1202 1
  2086 1214 1202 1
  2087 1244 1233 1
  2088 1245 1233 1
  2089 1278 1267 1
  2090 1279 1267 1
  2091 1312 1301 1
  2092 1313 1301 1
  2093 1346 1335 1
  2094 1347 1335 1
  2095 1377 1366 1
  2096 1378 1366 1
  2097 1441 1430 1
  2098 1442 1430 1
  2099 1472 1461 1
  2100 1473 1461 1
  2101 1506 1495 1
  2102 1507 1495 1
  2103 1699 1688 1
  2104 1700 1688 1
  2105 1760 1749 1
  2106 1761 1749 1
  2107 1791 1780 1
  2108 1792 1780 1
  2109 1825 1814 1
  2110 1826 1814 1
  2111 2015 2004 1
  2112 2016 2004 1
  2113  609  590 1
  2114 1090 1071 1
  2115  706  683 1
  2116  577  557 1
  2117 1474 1454 1
  2118 1920 1901 1
  2119 1030 1011 1
  2120 1951 1931 1
  2121 1569 1549 1
  2122 1983 1964 1
  2123 1731 1712 1
  2124 1538 1519 1
  2125  478  459 1
  2126 1443 1423 1
  2127  349  329 1
  2128  802  782 1
  2129 1762 1742 1
  2130 1182 1162 1
  2131 1379 1359 1
  2132 1151 1132 1
  2133   31    8 1
  2134  190  170 1
  2135 1215 1195 1
  2136 1635 1622 1
  2137 1636 1622 1
  2138  931  918 1
  2139  932  918 1
  2140 1858 1845 1
  2141 1859 1845 1
  2142  191  177 1
  2143  192  177 1
  2144 1183 1169 1
  2145 1184 1169 1
  2146 1410 1397 1
  2147 1411 1397 1
  2148   63   50 1
  2149   64   50 1
  2150  803  789 1
  2151  804  789 1
  2152 1570 1556 1
  2153 1571 1556 1
  2154  578  564 1
  2155  579  564 1
  2156  286  273 1
  2157  287  273 1
  2158  127  114 1
  2159  128  114 1
  2160  253  240 1
  2161  254  240 1
  2162 1952 1938 1
  2163 1953 1938 1
  2164  964  951 1
  2165  965  951 1
  2166 1602 1589 1
  2167 1603 1589 1
  2168  640  627 1
  2169  641  627 1
  2170  642  620 1
  2171  288  266 1
  2172 1000  977 1
  2173  159  140 1
  2174  771  751 1
  2175  318  299 1
  2176  933  911 1
  2177 1280 1257 1
  2178 1701 1678 1
  2179 2017 1994 1
  2180 1412 1390 1
  2181   96   76 1
  2182 1121 1101 1
  2183  672  653 1
  2184 1890 1871 1
  2185 2047 2028 1
  2186  222  203 1
  2187 1793 1773 1
  2188  835  815 1
  2189   65   43 1
  2190  966  944 1
  2191 1604 1582 1
  2192  546  523 1
  2193 1314 1291 1
  2194 1060 1041 1
  2195  869  846 1
  2196  255  233 1
  2197  414  394 1
  2198 1637 1615 1
  2199 1860 1838 1
  2200  383  360 1
  2201 2052 2051 1
  2202 1348 1325 1
  2203  740  717 1
  2204  512  489 1
  2205 1508 1485 1
  2206  448  425 1
  2207  900  880 1
  2208  129  107 1
  2209 1667 1648 1
  2210 1827 1804 1
  2211 1246 1226 1
  2212   32    1 1
@<TRIPOS>SUBSTRUCTURE
     1   G16       3 RESIDUE           4 A       G     1 ROOT
     2   A17      38 RESIDUE           4 A       A     2
     3   C18      71 RESIDUE           4 A       C     2
     4   A19     102 RESIDUE           4 A       A     2
     5   U20     135 RESIDUE           4 A       U     2
     6   A21     165 RESIDUE           4 A       A     2
     7   U22     198 RESIDUE           4 A       U     2
     8   A23     228 RESIDUE           4 A       A     2
     9   A24     261 RESIDUE           4 A       A     2
    10   U25     294 RESIDUE           4 A       U     2
    11   C26     324 RESIDUE           4 A       C     2
    12   G27     355 RESIDUE           4 A       G     2
    13   C28     389 RESIDUE           4 A       C     2
    14   G29     420 RESIDUE           4 A       G     2
    15   U30     454 RESIDUE           4 A       U     2
    16   G31     484 RESIDUE           4 A       G     2
    17   G32     518 RESIDUE           4 A       G     2
    18   A33     552 RESIDUE           4 A       A     2
    19   U34     585 RESIDUE           4 A       U     2
    20   A35     615 RESIDUE           4 A       A     2
    21   U36     648 RESIDUE           4 A       U     2
    22   G37     678 RESIDUE           4 A       G     2
    23   G38     712 RESIDUE           4 A       G     2
    24   C39     746 RESIDUE           4 A       C     2
    25   A40     777 RESIDUE           4 A       A     2
    26   C41     810 RESIDUE           4 A       C     2
    27   G42     841 RESIDUE           4 A       G     2
    28   C43     875 RESIDUE           4 A       C     2
    29   A44     906 RESIDUE           4 A       A     2
    30   A45     939 RESIDUE           4 A       A     2
    31   G46     972 RESIDUE           4 A       G     2
    32   U47    1006 RESIDUE           4 A       U     2
    33   U48    1036 RESIDUE           4 A       U     2
    34   U49    1066 RESIDUE           4 A       U     2
    35   C50    1096 RESIDUE           4 A       C     2
    36   U51    1127 RESIDUE           4 A       U     2
    37   A52    1157 RESIDUE           4 A       A     2
    38   C53    1190 RESIDUE           4 A       C     2
    39   C54    1221 RESIDUE           4 A       C     2
    40   G55    1252 RESIDUE           4 A       G     2
    41   G56    1286 RESIDUE           4 A       G     2
    42   G57    1320 RESIDUE           4 A       G     2
    43   C58    1354 RESIDUE           4 A       C     2
    44   A59    1385 RESIDUE           4 A       A     2
    45   C60    1418 RESIDUE           4 A       C     2
    46   C61    1449 RESIDUE           4 A       C     2
    47   G62    1480 RESIDUE           4 A       G     2
    48   U63    1514 RESIDUE           4 A       U     2
    49   A64    1544 RESIDUE           4 A       A     2
    50   A65    1577 RESIDUE           4 A       A     2
    51   A66    1610 RESIDUE           4 A       A     2
    52   U67    1643 RESIDUE           4 A       U     2
    53   G68    1673 RESIDUE           4 A       G     2
    54   U69    1707 RESIDUE           4 A       U     2
    55   C70    1737 RESIDUE           4 A       C     2
    56   C71    1768 RESIDUE           4 A       C     2
    57   G72    1799 RESIDUE           4 A       G     2
    58   A73    1833 RESIDUE           4 A       A     2
    59   U74    1866 RESIDUE           4 A       U     2
    60   U75    1896 RESIDUE           4 A       U     2
    61   A76    1926 RESIDUE           4 A       A     2
    62   U77    1959 RESIDUE           4 A       U     2
    63   G78    1989 RESIDUE           4 A       G     2
    64   U79    2023 RESIDUE           4 A       U     2
    65   C80    2048 RESIDUE           4 A       C     1
