@<TRIPOS>MOLECULE
5KX9.pdb
3487 3764 109 0 0
NUCLEIC_ACID
AMBER ff14SB


@<TRIPOS>ATOM
      1 O5'        -6.4720   38.4100   18.6230 O.3       1   G1       -0.6223
      2 C5'        -5.7680   37.3410   19.2790 C.3       1   G1        0.0558
      3 C4'        -6.7200   36.4580   20.0780 C.3       1   G1        0.1065
      4 O4'        -7.9800   36.3290   19.3550 O.3       1   G1       -0.3548
      5 C3'        -6.2600   35.0170   20.2780 C.3       1   G1        0.2022
      6 O3'        -5.3850   34.8870   21.4030 O.3       1   G1       -0.5246
      7 C2'        -7.5920   34.2970   20.4810 C.3       1   G1        0.0670
      8 O2'        -8.1580   34.5190   21.7610 O.3       1   G1       -0.6139
      9 C1'        -8.4330   34.9770   19.4080 C.3       1   G1        0.0191
     10 N9         -8.3000   34.3520   18.0730 N.ar      1   G1        0.0492
     11 C8         -7.6340   34.8530   16.9700 C.ar      1   G1        0.1374
     12 N7         -7.6360   34.0450   15.9420 N.ar      1   G1       -0.5709
     13 C5         -8.3370   32.9310   16.3860 C.ar      1   G1        0.1744
     14 C6         -8.6780   31.7320   15.7030 C.2       1   G1        0.4770
     15 O6         -8.4090   31.4120   14.5360 O.2       1   G1       -0.5597
     16 N1         -9.4330   30.8670   16.5130 N.am      1   G1       -0.4787
     17 C2         -9.7770   31.1200   17.8310 C.2       1   G1        0.7657
     18 N2        -10.4730   30.1670   18.4640 N.pl3     1   G1       -0.9672
     19 N3         -9.4660   32.2390   18.4750 N.2       1   G1       -0.6323
     20 C4         -8.7520   33.1020   17.6970 C.ar      1   G1        0.1222
     21 H5'        -5.0270   37.7668   19.9555 H         1   G1        0.0679
     22 H5''       -5.2609   36.7336   18.5294 H         1   G1        0.0679
     23 H4'        -6.9067   36.9154   21.0496 H         1   G1        0.1174
     24 H3'        -5.7690   34.6511   19.3763 H         1   G1        0.0615
     25 H2'        -7.4924   33.2305   20.2794 H         1   G1        0.0972
     26 H1'        -9.4805   34.9609   19.7091 H         1   G1        0.2006
     27 H8         -7.1565   35.8216   16.9585 H         1   G1        0.1640
     28 H1         -9.7476   29.9983   16.1050 H         1   G1        0.3424
     29 H21       -10.7173   29.3146   17.9805 H         1   G1        0.4364
     30 H22       -10.7537   30.3007   19.4250 H         1   G1        0.4364
     31 HO5'       -5.8492   38.9481   18.1289 H         1   G1        0.4295
     32 HO2'       -7.6204   34.0865   22.4285 H         1   G1        0.4186
     33 P          -4.2600   33.7230   21.4310 P.3       2   G2        1.1662
     34 OP1        -3.4090   33.9510   22.6300 O.co2     2   G2       -0.7760
     35 OP2        -3.6270   33.6440   20.0860 O.co2     2   G2       -0.7760
     36 O5'        -5.1180   32.3760   21.6400 O.3       2   G2       -0.4989
     37 C5'        -5.4860   31.9510   22.9530 C.3       2   G2        0.0558
     38 C4'        -6.1600   30.5890   22.9260 C.3       2   G2        0.1065
     39 O4'        -7.2770   30.6150   21.9960 O.3       2   G2       -0.3548
     40 C3'        -5.2950   29.4310   22.4430 C.3       2   G2        0.2022
     41 O3'        -4.4700   28.9240   23.4990 O.3       2   G2       -0.5246
     42 C2'        -6.3550   28.4260   21.9930 C.3       2   G2        0.0670
     43 O2'        -6.9420   27.7010   23.0670 O.3       2   G2       -0.6139
     44 C1'        -7.3840   29.3550   21.3340 C.3       2   G2        0.0191
     45 N9         -7.1460   29.5590   19.8970 N.ar      2   G2        0.0492
     46 C8         -6.6030   30.6760   19.2950 C.ar      2   G2        0.1374
     47 N7         -6.4630   30.5610   18.0050 N.ar      2   G2       -0.5709
     48 C5         -6.9040   29.2710   17.7290 C.ar      2   G2        0.1744
     49 C6         -7.0040   28.5870   16.4870 C.2       2   G2        0.4770
     50 O6         -6.6840   28.9970   15.3620 O.2       2   G2       -0.5597
     51 N1         -7.5170   27.2940   16.6400 N.am      2   G2       -0.4787
     52 C2         -7.8850   26.7290   17.8460 C.2       2   G2        0.7657
     53 N2         -8.3490   25.4680   17.7970 N.pl3     2   G2       -0.9672
     54 N3         -7.8300   27.3730   19.0150 N.2       2   G2       -0.6323
     55 C4         -7.3380   28.6410   18.8800 C.ar      2   G2        0.1222
     56 H5'        -4.5898   31.8910   23.5705 H         2   G2        0.0679
     57 H5''       -6.1706   32.6803   23.3862 H         2   G2        0.0679
     58 H4'        -6.5347   30.3593   23.9235 H         2   G2        0.1174
     59 H3'        -4.6818   29.7414   21.5970 H         2   G2        0.0615
     60 H2'        -5.9377   27.7397   21.2561 H         2   G2        0.0972
     61 H1'        -8.3854   28.9509   21.4823 H         2   G2        0.2006
     62 H8         -6.3204   31.5630   19.8426 H         2   G2        0.1640
     63 H1         -7.6263   26.7325   15.8076 H         2   G2        0.3424
     64 H21        -8.4020   24.9834   16.9124 H         2   G2        0.4364
     65 H22        -8.6445   25.0054   18.6448 H         2   G2        0.4364
     66 HO2'       -6.5514   26.8253   23.1138 H         2   G2        0.4186
     67 P          -2.9850   28.3840   23.1770 P.3       3   A3        1.1662
     68 OP1        -2.2920   28.1730   24.4740 O.co2     3   A3       -0.7760
     69 OP2        -2.3730   29.2730   22.1550 O.co2     3   A3       -0.7760
     70 O5'        -3.2610   26.9590   22.4810 O.3       3   A3       -0.4989
     71 C5'        -3.5650   25.8040   23.2750 C.3       3   A3        0.0558
     72 C4'        -4.1770   24.6980   22.4280 C.3       3   A3        0.1065
     73 O4'        -5.2110   25.2550   21.5670 O.3       3   A3       -0.3548
     74 C3'        -3.2190   23.9990   21.4710 C.3       3   A3        0.2022
     75 O3'        -2.5070   22.9410   22.1280 O.3       3   A3       -0.5246
     76 C2'        -4.1740   23.4740   20.3950 C.3       3   A3        0.0670
     77 O2'        -4.8430   22.2740   20.7610 O.3       3   A3       -0.6139
     78 C1'        -5.1620   24.6340   20.2820 C.3       3   A3        0.0394
     79 N9         -4.7650   25.6310   19.2720 N.ar      3   A3       -0.0251
     80 C8         -4.3040   26.9040   19.5020 C.ar      3   A3        0.2006
     81 N7         -3.9930   27.5670   18.4120 N.ar      3   A3       -0.6073
     82 C5         -4.2420   26.6630   17.3890 C.ar      3   A3        0.0515
     83 C6         -4.1180   26.7560   15.9750 C.ar      3   A3        0.7009
     84 N6         -3.6680   27.8490   15.3450 N.pl3     3   A3       -0.9019
     85 N1         -4.4370   25.6570   15.2380 N.ar      3   A3       -0.7615
     86 C2         -4.8540   24.5460   15.8760 C.ar      3   A3        0.5875
     87 N3         -5.0390   24.3500   17.1890 N.ar      3   A3       -0.6997
     88 C4         -4.7050   25.4550   17.9000 C.ar      3   A3        0.3053
     89 H5'        -2.6465   25.4349   23.7313 H         3   A3        0.0679
     90 H5''       -4.2674   26.0840   24.0601 H         3   A3        0.0679
     91 H4'        -4.6262   23.9544   23.0863 H         3   A3        0.1174
     92 H3'        -2.5205   24.7170   21.0412 H         3   A3        0.0615
     93 H2'        -3.6428   23.3376   19.4530 H         3   A3        0.0972
     94 H1'        -6.1487   24.2433   20.0334 H         3   A3        0.2007
     95 H8         -4.2058   27.3231   20.4925 H         3   A3        0.1553
     96 H2         -5.0685   23.6976   15.2431 H         3   A3        0.0473
     97 H61        -3.4111   28.6685   15.8765 H         3   A3        0.4115
     98 H62        -3.5855   27.8537   14.3384 H         3   A3        0.4115
     99 HO2'       -4.2057   21.5590   20.8265 H         3   A3        0.4186
    100 P          -1.0160   22.5460   21.6520 P.3       4   U4        1.1662
    101 OP1        -0.5530   21.4180   22.5050 O.co2     4   U4       -0.7760
    102 OP2        -0.2080   23.7940   21.5780 O.co2     4   U4       -0.7760
    103 O5'        -1.2280   22.0130   20.1500 O.3       4   U4       -0.4989
    104 C5'        -1.7570   20.7090   19.9120 C.3       4   U4        0.0558
    105 C4'        -1.6870   20.3570   18.4380 C.3       4   U4        0.1065
    106 O4'        -2.4820   21.2940   17.6680 O.3       4   U4       -0.3548
    107 C3'        -0.3110   20.4700   17.8060 C.3       4   U4        0.2022
    108 O3'         0.4920   19.3510   18.1200 O.3       4   U4       -0.5246
    109 C2'        -0.6600   20.5470   16.3220 C.3       4   U4        0.0670
    110 O2'        -0.9350   19.2830   15.7370 O.3       4   U4       -0.6139
    111 C1'        -1.9210   21.4160   16.3550 C.3       4   U4        0.0674
    112 N1         -1.6420   22.8870   16.0330 N.am      4   U4        0.0418
    113 C2         -1.5710   23.2940   14.6930 C.2       4   U4        0.4687
    114 O2         -1.7540   22.5420   13.7390 O.2       4   U4       -0.5477
    115 N3         -1.2890   24.6340   14.5110 N.am      4   U4       -0.3549
    116 C4         -1.0800   25.5910   15.4950 C.2       4   U4        0.5952
    117 O4         -0.8470   26.7530   15.1680 O.2       4   U4       -0.5761
    118 C5         -1.1380   25.0940   16.8570 C.2       4   U4       -0.3635
    119 C6         -1.4030   23.7920   17.0710 C.2       4   U4       -0.1126
    120 H5'        -1.1791   19.9804   20.4806 H         4   U4        0.0679
    121 H5''       -2.7961   20.6777   20.2397 H         4   U4        0.0679
    122 H4'        -2.0718   19.3482   18.2885 H         4   U4        0.1174
    123 H3'         0.1787   21.3892   18.1276 H         4   U4        0.0615
    124 H2'         0.1338   21.0532   15.7727 H         4   U4        0.0972
    125 H1'        -2.6355   21.0266   15.6297 H         4   U4        0.1824
    126 H3         -1.2280   24.9534   13.5548 H         4   U4        0.3154
    127 H5         -0.9704   25.7613   17.6895 H         4   U4        0.1811
    128 H6         -1.4322   23.4310   18.0884 H         4   U4        0.2188
    129 HO2'       -0.1098   18.8251   15.5607 H         4   U4        0.4186
    130 P           2.0950   19.4660   18.0480 P.3       5   C5        1.1662
    131 OP1         2.6480   18.2920   18.7690 O.co2     5   C5       -0.7760
    132 OP2         2.4940   20.8470   18.4620 O.co2     5   C5       -0.7760
    133 O5'         2.3830   19.2900   16.4670 O.3       5   C5       -0.4989
    134 C5'         3.1830   20.2290   15.7510 C.3       5   C5        0.0558
    135 C4'         2.8970   20.1520   14.2580 C.3       5   C5        0.1065
    136 O4'         1.6970   20.9140   13.9620 O.3       5   C5       -0.3548
    137 C3'         3.9880   20.7410   13.3700 C.3       5   C5        0.2022
    138 O3'         4.8780   19.7310   12.9510 O.3       5   C5       -0.5246
    139 C2'         3.2120   21.3420   12.2000 C.3       5   C5        0.0670
    140 O2'         2.9230   20.4060   11.1740 O.3       5   C5       -0.6139
    141 C1'         1.9340   21.8160   12.8890 C.3       5   C5        0.0066
    142 N1          2.0110   23.2590   13.4370 N.am      5   C5       -0.0484
    143 C2          2.0850   24.3590   12.5410 C.2       5   C5        0.7538
    144 O2          2.0950   24.1580   11.3150 O.2       5   C5       -0.6252
    145 N3          2.1630   25.6210   13.0560 N.2       5   C5       -0.7584
    146 C4          2.1680   25.8120   14.3870 C.2       5   C5        0.8185
    147 N4          2.2430   27.0700   14.8390 N.pl3     5   C5       -0.9530
    148 C5          2.1100   24.7170   15.3100 C.2       5   C5       -0.5215
    149 C6          2.0020   23.4800   14.8000 C.2       5   C5        0.0053
    150 H5'         4.2360   20.0079   15.9253 H         5   C5        0.0679
    151 H5''        2.9628   21.2351   16.1080 H         5   C5        0.0679
    152 H4'         2.7351   19.1106   13.9798 H         5   C5        0.1174
    153 H3'         4.5287   21.5219   13.9047 H         5   C5        0.0615
    154 H2'         3.7540   22.1936   11.7887 H         5   C5        0.0972
    155 H1'         1.1065   21.7500   12.1826 H         5   C5        0.2029
    156 H5          2.1517   24.8811   16.3766 H         5   C5        0.1928
    157 H6          1.9059   22.6389   15.4706 H         5   C5        0.1958
    158 H41         2.2886   27.8393   14.1862 H         5   C5        0.4234
    159 H42         2.2539   27.2497   15.8328 H         5   C5        0.4234
    160 HO2'        2.3544   20.8157   10.5179 H         5   C5        0.4186
    161 P           6.4410   20.0490   12.8250 P.3       6   U6        1.1662
    162 OP1         7.1460   18.7570   12.6200 O.co2     6   U6       -0.7760
    163 OP2         6.8210   20.9230   13.9630 O.co2     6   U6       -0.7760
    164 O5'         6.5250   20.9150   11.4740 O.3       6   U6       -0.4989
    165 C5'         6.1900   20.3160   10.2230 C.3       6   U6        0.0558
    166 C4'         6.1960   21.3370    9.1090 C.3       6   U6        0.1065
    167 O4'         5.1630   22.3260    9.3380 O.3       6   U6       -0.3548
    168 C3'         7.4490   22.1690    9.0120 C.3       6   U6        0.2022
    169 O3'         8.4970   21.4430    8.4070 O.3       6   U6       -0.5246
    170 C2'         6.9630   23.3470    8.1740 C.3       6   U6        0.0670
    171 O2'         6.8450   23.0590    6.7880 O.3       6   U6       -0.6139
    172 C1'         5.5860   23.5820    8.7890 C.3       6   U6        0.0674
    173 N1          5.5730   24.6630    9.8880 N.am      6   U6        0.0418
    174 C2          5.6080   26.0220    9.5320 C.2       6   U6        0.4687
    175 O2          5.6410   26.4260    8.3700 O.2       6   U6       -0.5477
    176 N3          5.5420   26.8970   10.6030 N.am      6   U6       -0.3549
    177 C4          5.4820   26.5730   11.9610 C.2       6   U6        0.5952
    178 O4          5.4460   27.4720   12.8030 O.2       6   U6       -0.5761
    179 C5          5.4850   25.1530   12.2510 C.2       6   U6       -0.3635
    180 C6          5.5260   24.2750   11.2320 C.2       6   U6       -0.1126
    181 H5'         6.9182   19.5375    9.9954 H         6   U6        0.0679
    182 H5''        5.1983   19.8692   10.2940 H         6   U6        0.0679
    183 H4'         6.0166   20.8375    8.1570 H         6   U6        0.1174
    184 H3'         7.7510   22.5109   10.0020 H         6   U6        0.0615
    185 H2'         7.6032   24.2153    8.3297 H         6   U6        0.0972
    186 H1'         4.8926   23.8732    8.0000 H         6   U6        0.1824
    187 H3          5.5366   27.8814   10.3771 H         6   U6        0.3154
    188 H5          5.4547   24.8037   13.2725 H         6   U6        0.1811
    189 H6          5.5225   23.2199   11.4624 H         6   U6        0.2188
    190 HO2'        7.2904   23.7410    6.2799 H         6   U6        0.4186
    191 P          10.0070   21.6660    8.9100 P.3       7   U7        1.1662
    192 OP1        10.8350   20.5650    8.3550 O.co2     7   U7       -0.7760
    193 OP2         9.9830   21.8990   10.3840 O.co2     7   U7       -0.7760
    194 O5'        10.4090   23.0520    8.1820 O.3       7   U7       -0.4989
    195 C5'        10.5140   23.1190    6.7340 C.3       7   U7        0.0558
    196 C4'        10.3450   24.5470    6.2170 C.3       7   U7        0.1065
    197 O4'         9.0990   25.1160    6.7160 O.3       7   U7       -0.3548
    198 C3'        11.3910   25.5420    6.6810 C.3       7   U7        0.2022
    199 O3'        12.6050   25.4130    5.9510 O.3       7   U7       -0.5246
    200 C2'        10.6660   26.8680    6.4280 C.3       7   U7        0.0670
    201 O2'        10.6010   27.2300    5.0490 O.3       7   U7       -0.6139
    202 C1'         9.2710   26.5170    6.9520 C.3       7   U7        0.0674
    203 N1          9.0730   26.8240    8.4490 N.am      7   U7        0.0418
    204 C2          8.8420   28.1340    8.8570 C.2       7   U7        0.4687
    205 O2          8.7970   29.0750    8.0860 O.2       7   U7       -0.5477
    206 N3          8.6960   28.3030   10.2250 N.am      7   U7       -0.3549
    207 C4          8.7590   27.3130   11.2050 C.2       7   U7        0.5952
    208 O4          8.6030   27.6060   12.3820 O.2       7   U7       -0.5761
    209 C5          8.9990   25.9820   10.7070 C.2       7   U7       -0.3635
    210 C6          9.1620   25.7950    9.3850 C.2       7   U7       -0.1126
    211 H5'         9.7387   22.4911    6.2950 H         7   U7        0.0679
    212 H5''       11.4910   22.7434    6.4300 H         7   U7        0.0679
    213 H4'        10.3217   24.5333    5.1273 H         7   U7        0.1174
    214 H3'        11.5802   25.4164    7.7471 H         7   U7        0.0615
    215 H2'        11.1100   27.6700    7.0177 H         7   U7        0.0972
    216 H1'         8.5272   27.0674    6.3759 H         7   U7        0.1824
    217 H3          8.5256   29.2451   10.5468 H         7   U7        0.3154
    218 H5          9.0474   25.1446   11.3873 H         7   U7        0.1811
    219 H6          9.3726   24.7967    9.0307 H         7   U7        0.2188
    220 HO2'       11.4810   27.4475    4.7330 H         7   U7        0.4186
    221 P          14.0130   25.6600    6.6980 P.3       8   C8        1.1662
    222 OP1        15.0930   25.2970    5.7410 O.co2     8   C8       -0.7760
    223 OP2        13.9560   25.0140    8.0400 O.co2     8   C8       -0.7760
    224 O5'        14.0240   27.2500    6.9310 O.3       8   C8       -0.4989
    225 C5'        14.2040   28.1380    5.8270 C.3       8   C8        0.0558
    226 C4'        13.8290   29.5620    6.2010 C.3       8   C8        0.1065
    227 O4'        12.5510   29.5610    6.8930 O.3       8   C8       -0.3548
    228 C3'        14.7620   30.2440    7.1860 C.3       8   C8        0.2022
    229 O3'        15.9340   30.7420    6.5480 O.3       8   C8       -0.5246
    230 C2'        13.8620   31.3490    7.7300 C.3       8   C8        0.0670
    231 O2'        13.6840   32.4310    6.8360 O.3       8   C8       -0.6139
    232 C1'        12.5490   30.5870    7.8810 C.3       8   C8        0.0066
    233 N1         12.3590   29.9840    9.2530 N.am      8   C8       -0.0484
    234 C2         12.0500   30.8260   10.3270 C.2       8   C8        0.7538
    235 O2         11.9510   32.0380   10.1280 O.2       8   C8       -0.6252
    236 N3         11.8410   30.2810   11.5580 N.2       8   C8       -0.7584
    237 C4         11.9750   28.9580   11.7420 C.2       8   C8        0.8185
    238 N4         11.7820   28.4700   12.9770 N.pl3     8   C8       -0.9530
    239 C5         12.3270   28.0810   10.6610 C.2       8   C8       -0.5215
    240 C6         12.5000   28.6310    9.4470 C.2       8   C8        0.0053
    241 H5'        15.2493   28.1149    5.5190 H         8   C8        0.0679
    242 H5''       13.5786   27.8091    4.9970 H         8   C8        0.0679
    243 H4'        13.7515   30.1660    5.2970 H         8   C8        0.1174
    244 H3'        15.0339   29.5540    7.9848 H         8   C8        0.0615
    245 H2'        14.2203   31.7001    8.6977 H         8   C8        0.0972
    246 H1'        11.7222   31.2679    7.6788 H         8   C8        0.2029
    247 H5         12.4482   27.0193   10.8176 H         8   C8        0.1928
    248 H6         12.7543   27.9985    8.6093 H         8   C8        0.1958
    249 H41        11.5390   29.0930   13.7339 H         8   C8        0.4234
    250 H42        11.8797   27.4797   13.1497 H         8   C8        0.4234
    251 HO2'       14.5113   32.9089    6.7426 H         8   C8        0.4186
    252 P          17.3700   30.6150    7.2830 P.3       9   G9        1.1662
    253 OP1        18.4070   31.1330    6.3460 O.co2     9   G9       -0.7760
    254 OP2        17.4960   29.2420    7.8490 O.co2     9   G9       -0.7760
    255 O5'        17.2260   31.6340    8.5110 O.3       9   G9       -0.4989
    256 C5'        17.1010   33.0440    8.2740 C.3       9   G9        0.0558
    257 C4'        16.7630   33.7720    9.5560 C.3       9   G9        0.1065
    258 O4'        15.4710   33.3300   10.0500 O.3       9   G9       -0.3548
    259 C3'        17.6980   33.4890   10.7100 C.3       9   G9        0.2022
    260 O3'        18.8450   34.2670   10.6100 O.3       9   G9       -0.5246
    261 C2'        16.8370   33.9060   11.8880 C.3       9   G9        0.0670
    262 O2'        16.7510   35.3150   12.0280 O.3       9   G9       -0.6139
    263 C1'        15.4860   33.3340   11.4760 C.3       9   G9        0.0191
    264 N9         15.2830   31.9740   11.9710 N.ar      9   G9        0.0492
    265 C8         15.5350   30.8020   11.2970 C.ar      9   G9        0.1374
    266 N7         15.3310   29.7340   12.0110 N.ar      9   G9       -0.5709
    267 C5         14.9340   30.2240   13.2450 C.ar      9   G9        0.1744
    268 C6         14.6020   29.5250   14.4310 C.2       9   G9        0.4770
    269 O6         14.6190   28.2960   14.6180 O.2       9   G9       -0.5597
    270 N1         14.2410   30.4000   15.4740 N.am      9   G9       -0.4787
    271 C2         14.2470   31.7790   15.3750 C.2       9   G9        0.7657
    272 N2         13.9130   32.4620   16.4790 N.pl3     9   G9       -0.9672
    273 N3         14.5660   32.4410   14.2620 N.2       9   G9       -0.6323
    274 C4         14.9150   31.6030   13.2460 C.ar      9   G9        0.1222
    275 H5'        18.0440   33.4263    7.8832 H         9   G9        0.0679
    276 H5''       16.3115   33.2175    7.5427 H         9   G9        0.0679
    277 H4'        16.7325   34.8451    9.3675 H         9   G9        0.1174
    278 H3'        17.9467   32.4290   10.7621 H         9   G9        0.0615
    279 H2'        17.1898   33.4444   12.8102 H         9   G9        0.0972
    280 H1'        14.6893   33.9790   11.8466 H         9   G9        0.2006
    281 H8         15.8708   30.7712   10.2710 H         9   G9        0.1640
    282 H1         13.9586   29.9924   16.3539 H         9   G9        0.3424
    283 H21        13.6720   31.9668   17.3256 H         9   G9        0.4364
    284 H22        13.9023   33.4718   16.4642 H         9   G9        0.4364
    285 HO2'       17.6157   35.7047   11.8796 H         9   G9        0.4186
    286 P          20.2810   33.6300   10.9130 P.3      10   G10       1.1662
    287 OP1        20.6450   32.7340    9.7820 O.co2    10   G10      -0.7760
    288 OP2        20.2910   33.1120   12.3100 O.co2    10   G10      -0.7760
    289 O5'        21.1990   34.9240   10.8580 O.3      10   G10      -0.4989
    290 C5'        21.2430   35.7070    9.6700 C.3      10   G10       0.0558
    291 C4'        22.5590   36.4580    9.5730 C.3      10   G10       0.1065
    292 O4'        22.7250   37.3150   10.7370 O.3      10   G10      -0.3548
    293 C3'        23.8160   35.5780    9.5210 C.3      10   G10       0.2022
    294 O3'        24.7680   36.2120    8.6970 O.3      10   G10      -0.5246
    295 C2'        24.2610   35.5820   10.9860 C.3      10   G10       0.0670
    296 O2'        25.6280   35.2860   11.1520 O.3      10   G10      -0.6139
    297 C1'        23.9740   37.0330   11.3330 C.3      10   G10       0.0191
    298 N9         23.8890   37.3360   12.7480 N.ar     10   G10       0.0492
    299 C8         23.4520   36.5120   13.7590 C.ar     10   G10       0.1374
    300 N7         23.4010   37.0980   14.9180 N.ar     10   G10      -0.5709
    301 C5         23.7790   38.4050   14.6500 C.ar     10   G10       0.1744
    302 C6         23.9060   39.5080   15.5140 C.2      10   G10       0.4770
    303 O6         23.7030   39.5430   16.7180 O.2      10   G10      -0.5597
    304 N1         24.2550   40.6790   14.8420 N.am     10   G10      -0.4787
    305 C2         24.5100   40.7730   13.4980 C.2      10   G10       0.7657
    306 N2         24.8770   41.9880   13.0450 N.pl3    10   G10      -0.9672
    307 N3         24.4140   39.7360   12.6580 N.2      10   G10      -0.6323
    308 C4         24.0560   38.5770   13.3150 C.ar     10   G10       0.1222
    309 H5'        21.1402   35.0515    8.8052 H        10   G10       0.0679
    310 H5''       20.4204   36.4220    9.6795 H        10   G10       0.0679
    311 H4'        22.5365   37.0843    8.6811 H        10   G10       0.1174
    312 H3'        23.5883   34.5708    9.1720 H        10   G10       0.0615
    313 H2'        23.6428   34.9104   11.5817 H        10   G10       0.0972
    314 H1'        24.7365   37.6655   10.8784 H        10   G10       0.2006
    315 H8         23.1780   35.4788   13.6048 H        10   G10       0.1640
    316 H1         24.3256   41.5253   15.3888 H        10   G10       0.3424
    317 H21        24.9488   42.7654   13.6858 H        10   G10       0.4364
    318 H22        25.0802   42.1212   12.0647 H        10   G10       0.4364
    319 HO2'       26.0920   36.0715   11.4508 H        10   G10       0.4186
    320 P          25.5470   35.4150    7.5620 P.3      11   G11       1.1662
    321 OP1        24.5600   34.9620    6.5480 O.co2    11   G11      -0.7760
    322 OP2        26.4570   34.4300    8.2110 O.co2    11   G11      -0.7760
    323 O5'        26.4400   36.5800    6.9370 O.3      11   G11      -0.4989
    324 C5'        25.8530   37.5480    6.0960 C.3      11   G11       0.0558
    325 C4'        26.4400   38.9040    6.3720 C.3      11   G11       0.1065
    326 O4'        26.0530   39.3160    7.6950 O.3      11   G11      -0.3548
    327 C3'        27.9540   38.9610    6.3830 C.3      11   G11       0.2022
    328 O3'        28.4390   39.1530    5.0660 O.3      11   G11      -0.5246
    329 C2'        28.2250   40.1660    7.2810 C.3      11   G11       0.0670
    330 O2'        28.0890   41.3980    6.5960 O.3      11   G11      -0.6139
    331 C1'        27.1080   40.0420    8.3010 C.3      11   G11       0.0191
    332 N9         27.4650   39.3820    9.5490 N.ar     11   G11       0.0492
    333 C8         27.3260   38.0480    9.8310 C.ar     11   G11       0.1374
    334 N7         27.5310   37.7540   11.0760 N.ar     11   G11      -0.5709
    335 C5         27.7140   38.9810   11.6820 C.ar     11   G11       0.1744
    336 C6         27.9110   39.2950   13.0420 C.2      11   G11       0.4770
    337 O6         28.0290   38.5080   13.9910 O.2      11   G11      -0.5597
    338 N1         28.0450   40.6700   13.2440 N.am     11   G11      -0.4787
    339 C2         28.0120   41.6160   12.2380 C.2      11   G11       0.7657
    340 N2         28.1650   42.8980   12.6010 N.pl3    11   G11      -0.9672
    341 N3         27.7800   41.3280   10.9750 N.2      11   G11      -0.6323
    342 C4         27.6780   39.9920   10.7600 C.ar     11   G11       0.1222
    343 H5'        26.0391   37.2807    5.0558 H        11   G11       0.0679
    344 H5''       24.7781   37.5770    6.2744 H        11   G11       0.0679
    345 H4'        26.0566   39.6189    5.6440 H        11   G11       0.1174
    346 H3'        28.3711   38.0533    6.8192 H        11   G11       0.0615
    347 H2'        29.2021   40.0880    7.7578 H        11   G11       0.0972
    348 H1'        26.7449   41.0429    8.5346 H        11   G11       0.2006
    349 H8         27.0695   37.3105    9.0848 H        11   G11       0.1640
    350 H1         28.1751   40.9955   14.1912 H        11   G11       0.3424
    351 H21        28.3203   43.1333   13.5709 H        11   G11       0.4364
    352 H22        28.1249   43.6283   11.9044 H        11   G11       0.4364
    353 HO2'       27.8134   42.0793    7.2136 H        11   G11       0.4186
    354 P          29.6930   38.2990    4.5430 P.3      12   G12       1.1662
    355 OP1        29.5920   38.1950    3.0590 O.co2    12   G12      -0.7760
    356 OP2        29.8000   37.0610    5.3700 O.co2    12   G12      -0.7760
    357 O5'        30.9250   39.2430    4.9190 O.3      12   G12      -0.4989
    358 C5'        31.0370   40.5560    4.3800 C.3      12   G12       0.0558
    359 C4'        31.9270   41.3810    5.2690 C.3      12   G12       0.1065
    360 O4'        31.3510   41.3600    6.5860 O.3      12   G12      -0.3548
    361 C3'        33.3250   40.8190    5.4660 C.3      12   G12       0.2022
    362 O3'        34.1850   41.3020    4.4390 O.3      12   G12      -0.5246
    363 C2'        33.7080   41.3640    6.8460 C.3      12   G12       0.0670
    364 O2'        34.1920   42.7030    6.7900 O.3      12   G12      -0.6139
    365 C1'        32.3680   41.3450    7.5740 C.3      12   G12       0.0191
    366 N9         32.1430   40.2060    8.4760 N.ar     12   G12       0.0492
    367 C8         31.9750   38.8920    8.1250 C.ar     12   G12       0.1374
    368 N7         31.6950   38.1050    9.1350 N.ar     12   G12      -0.5709
    369 C5         31.5970   38.9570   10.2070 C.ar     12   G12       0.1744
    370 C6         31.3170   38.6720   11.5630 C.2      12   G12       0.4770
    371 O6         31.0730   37.5760   12.0760 O.2      12   G12      -0.5597
    372 N1         31.2950   39.8240   12.3430 N.am     12   G12      -0.4787
    373 C2         31.4880   41.0980   11.8580 C.2      12   G12       0.7657
    374 N2         31.3760   42.0820   12.7480 N.pl3    12   G12      -0.9672
    375 N3         31.8080   41.3810   10.5910 N.2      12   G12      -0.6323
    376 C4         31.8390   40.2640    9.8210 C.ar     12   G12       0.1222
    377 H5'        31.4678   40.5040    3.3801 H        12   G12       0.0679
    378 H5''       30.0492   41.0138    4.3277 H        12   G12       0.0679
    379 H4'        31.9823   42.4049    4.8993 H        12   G12       0.1174
    380 H3'        33.3057   39.7292    5.4729 H        12   G12       0.0615
    381 H2'        34.4279   40.7096    7.3375 H        12   G12       0.0972
    382 H1'        32.2866   42.2615    8.1584 H        12   G12       0.2006
    383 H8         32.0651   38.5373    7.1089 H        12   G12       0.1640
    384 H1         31.1258   39.7184   13.3331 H        12   G12       0.3424
    385 H21        31.1480   41.8704   13.7089 H        12   G12       0.4364
    386 H22        31.5191   43.0401   12.4622 H        12   G12       0.4364
    387 HO2'       35.1400   42.6945    6.6390 H        12   G12       0.4186
    388 P          35.4670   40.4560    3.9540 P.3      13   C13       1.1662
    389 OP1        35.8800   41.0030    2.6440 O.co2    13   C13      -0.7760
    390 OP2        35.1510   39.0200    4.0950 O.co2    13   C13      -0.7760
    391 O5'        36.5880   40.8450    5.0280 O.3      13   C13      -0.4989
    392 C5'        37.9420   40.3780    4.8720 C.3      13   C13       0.0558
    393 C4'        38.9480   41.4860    5.1700 C.3      13   C13       0.1065
    394 O4'        38.8000   41.9250    6.5320 O.3      13   C13      -0.3548
    395 C3'        40.4030   41.0740    5.0660 C.3      13   C13       0.2022
    396 O3'        40.8530   41.2160    3.7160 O.3      13   C13      -0.5246
    397 C2'        41.1200   42.0560    6.0320 C.3      13   C13       0.0670
    398 O2'        41.6940   43.1850    5.3980 O.3      13   C13      -0.6139
    399 C1'        40.0140   42.5090    6.9720 C.3      13   C13       0.0066
    400 N1         40.2390   42.1500    8.4230 N.am     13   C13      -0.0484
    401 C2         41.0360   42.9770    9.2510 C.2      13   C13       0.7538
    402 O2         41.6100   43.9600    8.7630 O.2      13   C13      -0.6252
    403 N3         41.1550   42.6590   10.5810 N.2      13   C13      -0.7584
    404 C4         40.5290   41.5730   11.0810 C.2      13   C13       0.8185
    405 N4         40.6600   41.3010   12.3870 N.pl3    13   C13      -0.9530
    406 C5         39.7510   40.7140   10.2470 C.2      13   C13      -0.5215
    407 C6         39.6250   41.0400    8.9450 C.2      13   C13       0.0053
    408 H5'        38.0837   40.0361    3.8467 H        13   C13       0.0679
    409 H5''       38.1142   39.5453    5.5540 H        13   C13       0.0679
    410 H4'        38.7646   42.3264    4.5005 H        13   C13       0.1174
    411 H3'        40.5322   40.0458    5.4039 H        13   C13       0.0615
    412 H2'        41.8855   41.5229    6.5958 H        13   C13       0.0972
    413 H1'        39.9213   43.5924    6.8965 H        13   C13       0.2029
    414 H5         39.2777   39.8296   10.6472 H        13   C13       0.1928
    415 H6         39.0277   40.4137    8.2990 H        13   C13       0.1958
    416 H41        41.2143   41.9062   12.9758 H        13   C13       0.4234
    417 H42        40.2044   40.4909   12.7823 H        13   C13       0.4234
    418 HO2'       41.5850   43.1077    4.4473 H        13   C13       0.4186
    419 P          41.9100   40.1850    3.0670 P.3      14   A14       1.1662
    420 OP1        41.3880   38.8130    3.2380 O.co2    14   A14      -0.7760
    421 OP2        43.2800   40.5280    3.5510 O.co2    14   A14      -0.7760
    422 O5'        41.8410   40.5720    1.5270 O.3      14   A14      -0.4989
    423 C5'        40.6040   40.8190    0.9300 C.3      14   A14       0.0558
    424 C4'        40.7090   41.9120   -0.1160 C.3      14   A14       0.1065
    425 O4'        40.0660   43.1150    0.3650 O.3      14   A14      -0.3548
    426 C3'        42.1010   42.3800   -0.4960 C.3      14   A14       0.2022
    427 O3'        42.7160   41.4760   -1.3910 O.3      14   A14      -0.5246
    428 C2'        41.7500   43.6880   -1.1760 C.3      14   A14       0.0670
    429 O2'        41.1610   43.4830   -2.4420 O.3      14   A14      -0.6139
    430 C1'        40.7140   44.2420   -0.1980 C.3      14   A14       0.0394
    431 N9         41.3010   45.0270    0.8900 N.ar     14   A14      -0.0251
    432 C8         41.4950   44.6290    2.1940 C.ar     14   A14       0.2006
    433 N7         42.0310   45.5610    2.9580 N.ar     14   A14      -0.6073
    434 C5         42.2600   46.6140    2.0830 C.ar     14   A14       0.0515
    435 C6         42.8240   47.9000    2.2590 C.ar     14   A14       0.7009
    436 N6         43.3130   48.3330    3.4180 N.pl3    14   A14      -0.9019
    437 N1         42.8940   48.7120    1.1880 N.ar     14   A14      -0.7615
    438 C2         42.4140   48.2720    0.0200 C.ar     14   A14       0.5875
    439 N3         41.8540   47.0920   -0.2700 N.ar     14   A14      -0.6997
    440 C4         41.8090   46.3030    0.8110 C.ar     14   A14       0.3053
    441 H5'        40.2499   39.9045    0.4543 H        14   A14       0.0679
    442 H5''       39.8909   41.1236    1.6961 H        14   A14       0.0679
    443 H4'        40.1953   41.5802   -1.0183 H        14   A14       0.1174
    444 H3'        42.7184   42.5454    0.3869 H        14   A14       0.0615
    445 H2'        42.6184   44.3431   -1.2453 H        14   A14       0.0972
    446 H1'        39.9883   44.8499   -0.7383 H        14   A14       0.2007
    447 H8         41.2329   43.6462    2.5569 H        14   A14       0.1553
    448 H2         42.4888   48.9659   -0.8042 H        14   A14       0.0473
    449 H61        43.3003   49.3429    3.4169 H        14   A14       0.4115
    450 H62        43.2247   48.2918    4.4233 H        14   A14       0.4115
    451 HO2'       41.8186   43.1353   -3.0489 H        14   A14       0.4186
    452 P          44.2940   41.2190   -1.3150 P.3      15   G15       1.1662
    453 OP1        44.6880   40.5030   -2.5400 O.co2    15   G15      -0.7760
    454 OP2        44.6110   40.6270    0.0030 O.co2    15   G15      -0.7760
    455 O5'        44.9140   42.6950   -1.3170 O.3      15   G15      -0.4989
    456 C5'        45.1520   43.3930   -2.5070 C.3      15   G15       0.0558
    457 C4'        45.7940   44.7540   -2.2230 C.3      15   G15       0.1065
    458 O4'        44.9290   45.5490   -1.3670 O.3      15   G15      -0.3548
    459 C3'        47.1060   44.7020   -1.4670 C.3      15   G15       0.2022
    460 O3'        48.1730   44.4720   -2.3100 O.3      15   G15      -0.5246
    461 C2'        47.1760   46.0660   -0.8090 C.3      15   G15       0.0670
    462 O2'        47.6420   47.0860   -1.6580 O.3      15   G15      -0.6139
    463 C1'        45.7220   46.2850   -0.4270 C.3      15   G15       0.0191
    464 N9         45.4450   45.8210    0.9390 N.ar     15   G15       0.0492
    465 C8         45.0220   44.5700    1.3280 C.ar     15   G15       0.1374
    466 N7         44.9840   44.4130    2.6240 N.ar     15   G15      -0.5709
    467 C5         45.4610   45.6140    3.1240 C.ar     15   G15       0.1744
    468 C6         45.6450   46.0420    4.4700 C.2      15   G15       0.4770
    469 O6         45.3990   45.4230    5.5100 O.2      15   G15      -0.5597
    470 N1         46.1780   47.3320    4.5370 N.am     15   G15      -0.4787
    471 C2         46.4980   48.1040    3.4400 C.2      15   G15       0.7657
    472 N2         47.0000   49.3120    3.6930 N.pl3    15   G15      -0.9672
    473 N3         46.3090   47.7250    2.1810 N.2      15   G15      -0.6323
    474 C4         45.8020   46.4680    2.0970 C.ar     15   G15       0.1222
    475 H5'        44.2059   43.5462   -3.0261 H        15   G15       0.0679
    476 H5''       45.8181   42.8068   -3.1401 H        15   G15       0.0679
    477 H4'        45.9456   45.2807   -3.1652 H        15   G15       0.1174
    478 H3'        47.0629   43.9248   -0.7040 H        15   G15       0.0615
    479 H2'        47.7936   46.0161    0.0877 H        15   G15       0.0972
    480 H1'        45.4833   47.3457   -0.5043 H        15   G15       0.2006
    481 H8         44.7481   43.7935    0.6291 H        15   G15       0.1640
    482 H1         46.3402   47.7264    5.4526 H        15   G15       0.3424
    483 H21        47.1370   49.6122    4.6476 H        15   G15       0.4364
    484 H22        47.2436   49.9275    2.9302 H        15   G15       0.4364
    485 HO2'       48.5609   46.9216   -1.8821 H        15   G15       0.4186
    486 P          49.3520   43.5200   -1.8030 P.3      16   G16       1.1662
    487 OP1        50.4800   43.6980   -2.7360 O.co2    16   G16      -0.7760
    488 OP2        48.8090   42.1600   -1.5760 O.co2    16   G16      -0.7760
    489 O5'        49.6980   44.1540   -0.3760 O.3      16   G16      -0.4989
    490 C5'        51.0050   44.4590   -0.0140 C.3      16   G16       0.0558
    491 C4'        51.0620   45.7700    0.7500 C.3      16   G16       0.1065
    492 O4'        49.7520   46.1300    1.2940 O.3      16   G16      -0.3548
    493 C3'        51.9660   45.7640    1.9560 C.3      16   G16       0.2022
    494 O3'        53.3240   45.9050    1.5640 O.3      16   G16      -0.5246
    495 C2'        51.4390   46.9830    2.7060 C.3      16   G16       0.0670
    496 O2'        51.8380   48.2130    2.1180 O.3      16   G16      -0.6139
    497 C1'        49.9240   46.7770    2.5530 C.3      16   G16       0.0191
    498 N9         49.3550   45.9190    3.6100 N.ar     16   G16       0.0492
    499 C8         48.7900   44.6780    3.4530 C.ar     16   G16       0.1374
    500 N7         48.4670   44.1010    4.5780 N.ar     16   G16      -0.5709
    501 C5         48.8510   45.0080    5.5490 C.ar     16   G16       0.1744
    502 C6         48.7370   44.9340    6.9590 C.2      16   G16       0.4770
    503 O6         48.2800   44.0070    7.6490 O.2      16   G16      -0.5597
    504 N1         49.2670   46.0650    7.5760 N.am     16   G16      -0.4787
    505 C2         49.8280   47.1360    6.9130 C.2      16   G16       0.7657
    506 N2         50.2720   48.1490    7.6750 N.pl3    16   G16      -0.9672
    507 N3         49.8940   47.2390    5.5950 N.2      16   G16      -0.6323
    508 C4         49.4010   46.1340    4.9750 C.ar     16   G16       0.1222
    509 H5'        51.3963   43.6608    0.6168 H        16   G16       0.0679
    510 H5''       51.6171   44.5397   -0.9123 H        16   G16       0.0679
    511 H4'        51.3883   46.5577    0.0710 H        16   G16       0.1174
    512 H3'        51.8239   44.8564    2.5427 H        16   G16       0.0615
    513 H2'        51.7294   46.9452    3.7559 H        16   G16       0.0972
    514 H1'        49.4174   47.7421    2.5462 H        16   G16       0.2006
    515 H8         48.6278   44.2214    2.4878 H        16   G16       0.1640
    516 H1         49.2382   46.1034    8.5849 H        16   G16       0.3424
    517 H21        50.2061   48.0908    8.6812 H        16   G16       0.4364
    518 H22        50.6718   48.9691    7.2418 H        16   G16       0.4364
    519 HO2'       52.7856   48.3256    2.2224 H        16   G16       0.4186
    520 P          54.4560   45.0810    2.3400 P.3      17   G17       1.1662
    521 OP1        55.7330   45.2820    1.6180 O.co2    17   G17      -0.7760
    522 OP2        53.9590   43.7020    2.5840 O.co2    17   G17      -0.7760
    523 O5'        54.5280   45.8340    3.7550 O.3      17   G17      -0.4989
    524 C5'        54.9530   47.1920    3.8210 C.3      17   G17       0.0558
    525 C4'        55.1640   47.6260    5.2550 C.3      17   G17       0.1065
    526 O4'        53.8770   47.7640    5.9040 O.3      17   G17      -0.3548
    527 C3'        55.9260   46.6430    6.1350 C.3      17   G17       0.2022
    528 O3'        57.3290   46.7950    5.9720 O.3      17   G17      -0.5246
    529 C2'        55.4580   47.0690    7.5170 C.3      17   G17       0.0670
    530 O2'        56.0750   48.2700    7.9550 O.3      17   G17      -0.6139
    531 C1'        53.9730   47.3140    7.2490 C.3      17   G17       0.0191
    532 N9         53.1300   46.1150    7.4450 N.ar     17   G17       0.0492
    533 C8         52.6160   45.2780    6.4770 C.ar     17   G17       0.1374
    534 N7         51.9550   44.2590    6.9610 N.ar     17   G17      -0.5709
    535 C5         52.0480   44.4210    8.3340 C.ar     17   G17       0.1744
    536 C6         51.5090   43.6420    9.3840 C.2      17   G17       0.4770
    537 O6         50.8340   42.6180    9.3040 O.2      17   G17      -0.5597
    538 N1         51.8440   44.1500   10.6350 N.am     17   G17      -0.4787
    539 C2         52.6060   45.2710   10.8470 C.2      17   G17       0.7657
    540 N2         52.7990   45.6250   12.1160 N.pl3    17   G17      -0.9672
    541 N3         53.0870   46.0310    9.8800 N.2      17   G17      -0.6323
    542 C4         52.7750   45.5480    8.6480 C.ar     17   G17       0.1222
    543 H5'        54.1922   47.8258    3.3653 H        17   G17       0.0679
    544 H5''       55.8879   47.3023    3.2716 H        17   G17       0.0679
    545 H4'        55.6759   48.5882    5.2664 H        17   G17       0.1174
    546 H3'        55.6213   45.6182    5.9229 H        17   G17       0.0615
    547 H2'        55.5987   46.2682    8.2430 H        17   G17       0.0972
    548 H1'        53.6209   48.1048    7.9114 H        17   G17       0.2006
    549 H8         52.7471   45.4482    5.4186 H        17   G17       0.1640
    550 H1         51.5009   43.6572   11.4471 H        17   G17       0.3424
    551 H21        52.4135   45.0630   12.8614 H        17   G17       0.4364
    552 H22        53.3309   46.4556   12.3332 H        17   G17       0.4364
    553 HO2'       57.0067   48.1094    8.1214 H        17   G17       0.4186
    554 P          58.3030   45.5200    6.0920 P.3      18   U18       1.1662
    555 OP1        59.6640   45.9650    5.6990 O.co2    18   U18      -0.7760
    556 OP2        57.6750   44.3560    5.4100 O.co2    18   U18      -0.7760
    557 O5'        58.2980   45.2130    7.6590 O.3      18   U18      -0.4989
    558 C5'        58.9530   46.0940    8.5610 C.3      18   U18       0.0558
    559 C4'        58.6890   45.6870    9.9930 C.3      18   U18       0.1065
    560 O4'        57.2570   45.7100   10.2540 O.3      18   U18      -0.3548
    561 C3'        59.0830   44.2650   10.3390 C.3      18   U18       0.2022
    562 O3'        60.4710   44.1450   10.5570 O.3      18   U18      -0.5246
    563 C2'        58.2790   44.0450   11.6060 C.3      18   U18       0.0670
    564 O2'        58.8490   44.6700   12.7410 O.3      18   U18      -0.6139
    565 C1'        56.9500   44.7110   11.2290 C.3      18   U18       0.0674
    566 N1         55.9330   43.7060   10.6770 N.am     18   U18       0.0418
    567 C2         55.2320   42.9030   11.5730 C.2      18   U18       0.4687
    568 O2         55.3040   43.0240   12.7830 O.2      18   U18      -0.5477
    569 N3         54.4200   41.9560   10.9930 N.am     18   U18      -0.3549
    570 C4         54.2260   41.7350    9.6440 C.2      18   U18       0.5952
    571 O4         53.4320   40.8730    9.2830 O.2      18   U18      -0.5761
    572 C5         55.0120   42.5760    8.7670 C.2      18   U18      -0.3635
    573 C6         55.8240   43.5020    9.3020 C.2      18   U18      -0.1126
    574 H5'        58.5832   47.1071    8.4032 H        18   U18       0.0679
    575 H5''       60.0262   46.0694    8.3722 H        18   U18       0.0679
    576 H4'        59.1934   46.3791   10.6673 H        18   U18       0.1174
    577 H3'        58.7587   43.5782    9.5572 H        18   U18       0.0615
    578 H2'        58.1351   42.9799   11.7877 H        18   U18       0.0972
    579 H1'        56.5305   45.1929   12.1121 H        18   U18       0.1824
    580 H3         53.9089   41.3556   11.6242 H        18   U18       0.3154
    581 H5         54.9463   42.4603    7.6952 H        18   U18       0.1811
    582 H6         56.4176   44.1145    8.6395 H        18   U18       0.2188
    583 HO2'       59.6786   44.2398   12.9609 H        18   U18       0.4186
    584 P          61.2990   42.9950    9.7940 P.3      19   G19       1.1662
    585 OP1        62.7360   43.3420    9.8960 O.co2    19   G19      -0.7760
    586 OP2        60.6830   42.7940    8.4590 O.co2    19   G19      -0.7760
    587 O5'        61.0310   41.6720   10.6450 O.3      19   G19      -0.4989
    588 C5'        61.1250   41.7010   12.0480 C.3      19   G19       0.0558
    589 C4'        60.1990   40.6800   12.6660 C.3      19   G19       0.1065
    590 O4'        58.8050   41.0200   12.3970 O.3      19   G19      -0.3548
    591 C3'        60.3410   39.2870   12.1090 C.3      19   G19       0.2022
    592 O3'        61.4780   38.6380   12.6530 O.3      19   G19      -0.5246
    593 C2'        59.0190   38.6610   12.5480 C.3      19   G19       0.0670
    594 O2'        58.9940   38.3210   13.9260 O.3      19   G19      -0.6139
    595 C1'        58.0460   39.8160   12.2640 C.3      19   G19       0.0191
    596 N9         57.4300   39.7380   10.9170 N.ar     19   G19       0.0492
    597 C8         57.8990   40.3000    9.7490 C.ar     19   G19       0.1374
    598 N7         57.2220   39.9510    8.6840 N.ar     19   G19      -0.5709
    599 C5         56.2420   39.0870    9.1680 C.ar     19   G19       0.1744
    600 C6         55.1830   38.3950    8.4820 C.2      19   G19       0.4770
    601 O6         54.8930   38.4150    7.2660 O.2      19   G19      -0.5597
    602 N1         54.4130   37.6320    9.3620 N.am     19   G19      -0.4787
    603 C2         54.6190   37.5580   10.7240 C.2      19   G19       0.7657
    604 N2         53.7710   36.7840   11.4130 N.pl3    19   G19      -0.9672
    605 N3         55.5910   38.1970   11.3700 N.2      19   G19      -0.6323
    606 C4         56.3600   38.9430   10.5400 C.ar     19   G19       0.1222
    607 H5'        60.8515   42.6941   12.4044 H        19   G19       0.0679
    608 H5''       62.1509   41.4823   12.3444 H        19   G19       0.0679
    609 H4'        60.3609   40.6541   13.7436 H        19   G19       0.1174
    610 H3'        60.4047   39.3172   11.0213 H        19   G19       0.0615
    611 H2'        58.7792   37.7942   11.9322 H        19   G19       0.0972
    612 H1'        57.2571   39.8087   13.0161 H        19   G19       0.2006
    613 H8         58.7475   40.9673    9.7154 H        19   G19       0.1640
    614 H1         53.6504   37.0957    8.9735 H        19   G19       0.3424
    615 H21        53.0301   36.2941   10.9322 H        19   G19       0.4364
    616 H22        53.8722   36.6901   12.4135 H        19   G19       0.4364
    617 HO2'       58.2444   37.7474   14.1010 H        19   G19       0.4186
    618 P          62.4470   37.7780   11.6980 P.3      20   A20       1.1662
    619 OP1        63.7420   37.6130   12.4090 O.co2    20   A20      -0.7760
    620 OP2        62.4200   38.3910   10.3400 O.co2    20   A20      -0.7760
    621 O5'        61.7170   36.3490   11.6290 O.3      20   A20      -0.4989
    622 C5'        61.9830   35.4690   10.5500 C.3      20   A20       0.0558
    623 C4'        61.2670   34.1430   10.7380 C.3      20   A20       0.1065
    624 O4'        61.6680   33.5560   11.9970 O.3      20   A20      -0.3548
    625 C3'        59.7630   34.2480   10.8380 C.3      20   A20       0.2022
    626 O3'        59.1590   34.2720    9.5470 O.3      20   A20      -0.5246
    627 C2'        59.3900   33.0160   11.6580 C.3      20   A20       0.0670
    628 O2'        59.3000   31.8270   10.8890 O.3      20   A20      -0.6139
    629 C1'        60.5540   32.9500   12.6360 C.3      20   A20       0.0394
    630 N9         60.3100   33.6560   13.8980 N.ar     20   A20      -0.0251
    631 C8         60.7520   34.9150   14.2450 C.ar     20   A20       0.2006
    632 N7         60.4040   35.2890   15.4570 N.ar     20   A20      -0.6073
    633 C5         59.6940   34.2050   15.9420 C.ar     20   A20       0.0515
    634 C6         59.0800   33.9630   17.1820 C.ar     20   A20       0.7009
    635 N6         59.0850   34.8540   18.1810 N.pl3    20   A20      -0.9019
    636 N1         58.4820   32.7560   17.3710 N.ar     20   A20      -0.7615
    637 C2         58.4590   31.8750   16.3500 C.ar     20   A20       0.5875
    638 N3         58.9840   32.0030   15.1220 N.ar     20   A20      -0.6997
    639 C4         59.6090   33.1950   14.9890 C.ar     20   A20       0.3053
    640 H5'        61.6421   35.9294    9.6227 H        20   A20       0.0679
    641 H5''       63.0567   35.2913   10.4885 H        20   A20       0.0679
    642 H4'        61.5306   33.4692    9.9228 H        20   A20       0.1174
    643 H3'        59.4932   35.1503   11.3868 H        20   A20       0.0615
    644 H2'        58.4570   33.1890   12.1943 H        20   A20       0.0972
    645 H1'        60.7859   31.9062   12.8478 H        20   A20       0.2007
    646 H8         61.3322   35.5385   13.5809 H        20   A20       0.1553
    647 H2         57.9505   30.9428   16.5471 H        20   A20       0.0473
    648 H61        59.5350   35.7496   18.0567 H        20   A20       0.4115
    649 H62        58.6388   34.6306   19.0591 H        20   A20       0.4115
    650 HO2'       58.5598   31.8936   10.2814 H        20   A20       0.4186
    651 P          58.0040   35.3470    9.2650 P.3      21   A21       1.1662
    652 OP1        57.6560   35.3010    7.8190 O.co2    21   A21      -0.7760
    653 OP2        58.4170   36.6360    9.8860 O.co2    21   A21      -0.7760
    654 O5'        56.7980   34.7240   10.1200 O.3      21   A21      -0.4989
    655 C5'        56.2210   33.4770    9.7250 C.3      21   A21       0.0558
    656 C4'        55.4650   32.8480   10.8700 C.3      21   A21       0.1065
    657 O4'        56.3150   32.8210   12.0310 O.3      21   A21      -0.3548
    658 C3'        54.2200   33.5960   11.3130 C.3      21   A21       0.2022
    659 O3'        53.0930   33.1630   10.5450 O.3      21   A21      -0.5246
    660 C2'        54.0960   33.1700   12.7720 C.3      21   A21       0.0670
    661 O2'        53.4560   31.9110   12.9130 O.3      21   A21      -0.6139
    662 C1'        55.5610   33.0650   13.1950 C.3      21   A21       0.0394
    663 N9         56.0830   34.2700   13.8240 N.ar     21   A21      -0.0251
    664 C8         56.7820   35.2910   13.2220 C.ar     21   A21       0.2006
    665 N7         57.1310   36.2560   14.0440 N.ar     21   A21      -0.6073
    666 C5         56.6440   35.8370   15.2700 C.ar     21   A21       0.0515
    667 C6         56.6890   36.4130   16.5580 C.ar     21   A21       0.7009
    668 N6         57.2770   37.5890   16.8150 N.pl3    21   A21      -0.9019
    669 N1         56.0870   35.7350   17.5760 N.ar     21   A21      -0.7615
    670 C2         55.5050   34.5460   17.3160 C.ar     21   A21       0.5875
    671 N3         55.4010   33.9010   16.1480 N.ar     21   A21      -0.6997
    672 C4         55.9970   34.6070   15.1550 C.ar     21   A21       0.3053
    673 H5'        55.5350   33.6480    8.8954 H        21   A21       0.0679
    674 H5''       57.0129   32.8008    9.4028 H        21   A21       0.0679
    675 H4'        55.1929   31.8272   10.6016 H        21   A21       0.1174
    676 H3'        54.3600   34.6738   11.2300 H        21   A21       0.0615
    677 H2'        53.5797   33.9330   13.3545 H        21   A21       0.0972
    678 H1'        55.6768   32.2247   13.8795 H        21   A21       0.2007
    679 H8         57.0223   35.2990   12.1691 H        21   A21       0.1553
    680 H2         55.0630   34.0470   18.1657 H        21   A21       0.0473
    681 H61        57.7216   38.1050   16.0692 H        21   A21       0.4115
    682 H62        57.2757   37.9596   17.7546 H        21   A21       0.4115
    683 HO2'       52.5372   31.9868   12.6452 H        21   A21       0.4186
    684 P          52.1290   34.2220    9.8270 P.3      22   A22       1.1662
    685 OP1        51.0180   33.4390    9.2220 O.co2    22   A22      -0.7760
    686 OP2        52.9620   35.1130    8.9780 O.co2    22   A22      -0.7760
    687 O5'        51.5750   35.1240   11.0430 O.3      22   A22      -0.4989
    688 C5'        50.5940   34.6180   11.9750 C.3      22   A22       0.0558
    689 C4'        49.7780   35.7580   12.5750 C.3      22   A22       0.1065
    690 O4'        50.6620   36.6880   13.1990 O.3      22   A22      -0.3548
    691 C3'        49.0080   36.6030   11.5660 C.3      22   A22       0.2022
    692 O3'        47.6720   36.1270   11.4390 O.3      22   A22      -0.5246
    693 C2'        49.0700   38.0350   12.1400 C.3      22   A22       0.0670
    694 O2'        47.8090   38.5300   12.5470 O.3      22   A22      -0.6139
    695 C1'        49.9920   37.8990   13.3450 C.3      22   A22       0.0394
    696 N9         50.9750   38.9780   13.4770 N.ar     22   A22      -0.0251
    697 C8         51.7710   39.5030   12.4930 C.ar     22   A22       0.2006
    698 N7         52.5210   40.5070   12.8890 N.ar     22   A22      -0.6073
    699 C5         52.1940   40.6600   14.2280 C.ar     22   A22       0.0515
    700 C6         52.6600   41.5450   15.2390 C.ar     22   A22       0.7009
    701 N6         53.5770   42.4930   15.0250 N.pl3    22   A22      -0.9019
    702 N1         52.1400   41.4150   16.4850 N.ar     22   A22      -0.7615
    703 C2         51.2080   40.4700   16.7070 C.ar     22   A22       0.5875
    704 N3         50.7220   39.5570   15.8590 N.ar     22   A22      -0.6997
    705 C4         51.2530   39.7130   14.6150 C.ar     22   A22       0.3053
    706 H5'        51.1048   34.0841   12.7763 H        22   A22       0.0679
    707 H5''       49.9251   33.9319   11.4554 H        22   A22       0.0679
    708 H4'        49.0870   35.3589   13.3175 H        22   A22       0.1174
    709 H3'        49.5069   36.5700   10.5974 H        22   A22       0.0615
    710 H2'        49.5141   38.7091   11.4076 H        22   A22       0.0972
    711 H1'        49.3863   37.8605   14.2504 H        22   A22       0.2007
    712 H8         51.7812   39.1251   11.4813 H        22   A22       0.1553
    713 H2         50.7967   40.4455   17.7053 H        22   A22       0.0473
    714 HO2'       47.5522   39.2593   11.9780 H        22   A22       0.4186
    715 H61        54.1431   42.3045   14.2101 H        22   A22       0.4115
    716 H62        53.6912   43.3068   15.6122 H        22   A22       0.4115
    717 P          47.2030   35.3210   10.1320 P.3      23   U23       1.1662
    718 OP1        46.5060   34.0960   10.5770 O.co2    23   U23      -0.7760
    719 OP2        48.3530   35.2010    9.1910 O.co2    23   U23      -0.7760
    720 O5'        46.1330   36.3250    9.4910 O.3      23   U23      -0.4989
    721 C5'        46.5900   37.5460    8.9030 C.3      23   U23       0.0558
    722 C4'        45.4900   38.5870    8.8290 C.3      23   U23       0.1065
    723 O4'        44.5200   38.2300    7.8160 O.3      23   U23      -0.3548
    724 C3'        44.7180   38.8210   10.1130 C.3      23   U23       0.2022
    725 O3'        44.5430   40.1920   10.2950 O.3      23   U23      -0.5246
    726 C2'        43.3950   38.1040    9.8790 C.3      23   U23       0.0670
    727 O2'        42.3170   38.7220   10.5310 O.3      23   U23      -0.6139
    728 C1'        43.2220   38.2070    8.3700 C.3      23   U23       0.0674
    729 N1         42.4570   37.0420    7.7800 N.am     23   U23       0.0418
    730 C2         41.2610   37.2870    7.1360 C.2      23   U23       0.4687
    731 O2         40.8150   38.4050    6.9640 O.2      23   U23      -0.5477
    732 N3         40.6140   36.1700    6.6710 N.am     23   U23      -0.3549
    733 C4         41.0380   34.8510    6.7810 C.2      23   U23       0.5952
    734 O4         40.3650   33.9520    6.2740 O.2      23   U23      -0.5761
    735 C5         42.3020   34.6710    7.4610 C.2      23   U23      -0.3635
    736 C6         42.9460   35.7490    7.9310 C.2      23   U23      -0.1126
    737 H5'        47.4087   37.9413    9.5044 H        23   U23       0.0679
    738 H5''       46.9546   37.3415    7.8963 H        23   U23       0.0679
    739 H4'        45.9452   39.5331    8.5363 H        23   U23       0.1174
    740 H3'        45.2451   38.3857   10.9620 H        23   U23       0.0615
    741 H2'        43.4718   37.0595   10.1810 H        23   U23       0.0972
    742 H1'        42.7084   39.1373    8.1273 H        23   U23       0.1824
    743 H3         39.7349   36.3227    6.1978 H        23   U23       0.3154
    744 H5         42.7205   33.6835    7.5881 H        23   U23       0.1811
    745 H6         43.8834   35.6072    8.4483 H        23   U23       0.2188
    746 HO2'       42.4346   38.6522   11.4812 H        23   U23       0.4186
    747 P          45.4030   40.9370   11.3890 P.3      24   U24       1.1662
    748 OP1        44.9300   42.3430   11.4750 O.co2    24   U24      -0.7760
    749 OP2        46.8380   40.6570   11.1190 O.co2    24   U24      -0.7760
    750 O5'        44.9820   40.1400   12.6950 O.3      24   U24      -0.4989
    751 C5'        43.7420   40.3990   13.2810 C.3      24   U24       0.0558
    752 C4'        43.8040   40.1910   14.7650 C.3      24   U24       0.1065
    753 O4'        43.9610   38.7810   15.0450 O.3      24   U24      -0.3548
    754 C3'        44.9380   40.9200   15.4840 C.3      24   U24       0.2022
    755 O3'        44.4210   41.5890   16.6180 O.3      24   U24      -0.5246
    756 C2'        45.8850   39.7890   15.8770 C.3      24   U24       0.0670
    757 O2'        46.5610   40.0550   17.0780 O.3      24   U24      -0.6139
    758 C1'        44.9170   38.6220   16.0520 C.3      24   U24       0.0674
    759 N1         45.5480   37.2740   15.9100 N.am     24   U24       0.0418
    760 C2         45.6820   36.4740   17.0280 C.2      24   U24       0.4687
    761 O2         45.3130   36.8110   18.1350 O.2      24   U24      -0.5477
    762 N3         46.2710   35.2540   16.7980 N.am     24   U24      -0.3549
    763 C4         46.7430   34.7680   15.5900 C.2      24   U24       0.5952
    764 O4         47.2980   33.6700   15.5480 O.2      24   U24      -0.5761
    765 C5         46.5180   35.6320   14.4600 C.2      24   U24      -0.3635
    766 C6         45.9530   36.8280   14.6570 C.2      24   U24      -0.1126
    767 H5'        43.4579   41.4312   13.0759 H        24   U24       0.0679
    768 H5''       42.9955   39.7289   12.8546 H        24   U24       0.0679
    769 H4'        42.8588   40.5213   15.1957 H        24   U24       0.1174
    770 H3'        45.4325   41.6224   14.8130 H        24   U24       0.0615
    771 H2'        46.5933   39.5841   15.0743 H        24   U24       0.0972
    772 H1'        44.4332   38.6951   17.0260 H        24   U24       0.1824
    773 H3         46.3706   34.6449   17.5975 H        24   U24       0.3154
    774 H5         46.8019   35.3181   13.4664 H        24   U24       0.1811
    775 H6         45.8049   37.4757   13.8056 H        24   U24       0.2188
    776 HO2'       47.1645   40.7905   16.9499 H        24   U24       0.4186
    777 P          44.6290   43.1590   16.8060 P.3      25   C25       1.1662
    778 OP1        43.9040   43.5630   18.0340 O.co2    25   C25      -0.7760
    779 OP2        44.3340   43.8400   15.5210 O.co2    25   C25      -0.7760
    780 O5'        46.2040   43.2610   17.0560 O.3      25   C25      -0.4989
    781 C5'        46.7230   43.5930   18.3410 C.3      25   C25       0.0558
    782 C4'        48.0820   44.2460   18.2100 C.3      25   C25       0.1065
    783 O4'        49.0100   43.2980   17.6280 O.3      25   C25      -0.3548
    784 C3'        48.1120   45.4490   17.2900 C.3      25   C25       0.2022
    785 O3'        47.7730   46.6330   18.0020 O.3      25   C25      -0.5246
    786 C2'        49.5540   45.4600   16.8120 C.3      25   C25       0.0670
    787 O2'        50.4330   46.1310   17.6960 O.3      25   C25      -0.6139
    788 C1'        49.8830   43.9640   16.7370 C.3      25   C25       0.0066
    789 N1         49.7230   43.3780   15.3370 N.am     25   C25      -0.0484
    790 C2         50.5990   43.7830   14.3000 C.2      25   C25       0.7538
    791 O2         51.5170   44.5820   14.5520 O.2      25   C25      -0.6252
    792 N3         50.4300   43.2550   13.0470 N.2      25   C25      -0.7584
    793 C4         49.4400   42.3870   12.8060 C.2      25   C25       0.8185
    794 N4         49.3070   41.9220   11.5610 N.pl3    25   C25      -0.9530
    795 C5         48.5370   41.9650   13.8380 C.2      25   C25      -0.5215
    796 C6         48.7100   42.4840   15.0730 C.2      25   C25       0.0053
    797 H5'        46.8174   42.6843   18.9355 H        25   C25       0.0679
    798 H5''       46.0394   44.2804   18.8393 H        25   C25       0.0679
    799 H4'        48.4379   44.5387   19.1978 H        25   C25       0.1174
    800 H3'        47.4334   45.3026   16.4496 H        25   C25       0.0615
    801 H2'        49.6137   45.9047   15.8186 H        25   C25       0.0972
    802 H1'        50.9100   43.8112   17.0686 H        25   C25       0.2029
    803 H5         47.7469   41.2574   13.6346 H        25   C25       0.1928
    804 H6         48.0407   42.1920   15.8687 H        25   C25       0.1958
    805 H41        49.9441   42.2248   10.8381 H        25   C25       0.4234
    806 H42        48.5694   41.2676   11.3424 H        25   C25       0.4234
    807 HO2'       51.3363   46.0300   17.3870 H        25   C25       0.4186
    808 P          46.9070   47.7780   17.2830 P.3      26   C26       1.1662
    809 OP1        46.6950   48.8780   18.2490 O.co2    26   C26      -0.7760
    810 OP2        45.7330   47.1530   16.6300 O.co2    26   C26      -0.7760
    811 O5'        47.8930   48.2830   16.1440 O.3      26   C26      -0.4989
    812 C5'        49.0850   48.9770   16.4830 C.3      26   C26       0.0558
    813 C4'        49.8130   49.4180   15.2370 C.3      26   C26       0.1065
    814 O4'        50.4370   48.2630   14.6090 O.3      26   C26      -0.3548
    815 C3'        48.9270   49.9960   14.1500 C.3      26   C26       0.2022
    816 O3'        48.6120   51.3330   14.4010 O.3      26   C26      -0.5246
    817 C2'        49.7960   49.8170   12.9150 C.3      26   C26       0.0670
    818 O2'        50.7800   50.8200   12.7670 O.3      26   C26      -0.6139
    819 C1'        50.4410   48.4470   13.1910 C.3      26   C26       0.0066
    820 N1         49.6950   47.2940   12.5090 N.am     26   C26      -0.0484
    821 C2         49.8280   47.0940   11.1190 C.2      26   C26       0.7538
    822 O2         50.6510   47.7620   10.4850 O.2      26   C26      -0.6252
    823 N3         49.1040   46.1040   10.5230 N.2      26   C26      -0.7584
    824 C4         48.2400   45.3760   11.2410 C.2      26   C26       0.8185
    825 N4         47.5520   44.4180   10.6180 N.pl3    26   C26      -0.9530
    826 C5         48.0430   45.6040   12.6320 C.2      26   C26      -0.5215
    827 C6         48.7810   46.5580   13.2180 C.2      26   C26       0.0053
    828 H5'        48.8322   49.8535   17.0796 H        26   C26       0.0679
    829 H5''       49.7316   48.3197   17.0644 H        26   C26       0.0679
    830 H4'        50.5806   50.1445   15.5036 H        26   C26       0.1174
    831 H3'        48.0149   49.4066   14.0560 H        26   C26       0.0615
    832 H2'        49.1736   49.7663   12.0216 H        26   C26       0.0972
    833 H1'        51.4719   48.4618   12.8374 H        26   C26       0.2029
    834 H5         47.3239   45.0285   13.1961 H        26   C26       0.1928
    835 H6         48.6524   46.7510   14.2728 H        26   C26       0.1958
    836 H41        47.6910   44.2571    9.6306 H        26   C26       0.4234
    837 H42        46.8921   43.8535   11.1336 H        26   C26       0.4234
    838 HO2'       50.3546   51.6635   12.5960 H        26   C26       0.4186
    839 P          47.2990   51.9810   13.7400 P.3      27   C27       1.1662
    840 OP1        47.1550   53.3500   14.2830 O.co2    27   C27      -0.7760
    841 OP2        46.1750   51.0160   13.8770 O.co2    27   C27      -0.7760
    842 O5'        47.6670   52.0630   12.1770 O.3      27   C27      -0.4989
    843 C5'        48.2160   53.2390   11.6210 C.3      27   C27       0.0558
    844 C4'        48.4410   53.0870   10.1290 C.3      27   C27       0.1065
    845 O4'        48.9780   51.7730    9.8330 O.3      27   C27      -0.3548
    846 C3'        47.1930   53.1350    9.2730 C.3      27   C27       0.2022
    847 O3'        46.7120   54.4590    9.1020 O.3      27   C27      -0.5246
    848 C2'        47.7290   52.5670    7.9800 C.3      27   C27       0.0670
    849 O2'        48.5270   53.5010    7.2820 O.3      27   C27      -0.6139
    850 C1'        48.5920   51.4110    8.5010 C.3      27   C27       0.0066
    851 N1         47.8530   50.0530    8.5110 N.am     27   C27      -0.0484
    852 C2         47.4780   49.4230    7.2820 C.2      27   C27       0.7538
    853 O2         47.8280   49.9170    6.2040 O.2      27   C27      -0.6252
    854 N3         46.8090   48.2330    7.3310 N.2      27   C27      -0.7584
    855 C4         46.4760   47.6950    8.5140 C.2      27   C27       0.8185
    856 N4         45.8120   46.5350    8.5060 N.pl3    27   C27      -0.9530
    857 C5         46.8080   48.3260    9.7540 C.2      27   C27      -0.5215
    858 C6         47.4860   49.4840    9.7100 C.2      27   C27       0.0053
    859 H5'        47.5298   54.0680   11.7943 H        27   C27       0.0679
    860 H5''       49.1678   53.4543   12.1067 H        27   C27       0.0679
    861 H4'        49.1422   53.8493    9.7894 H        27   C27       0.1174
    862 H3'        46.4160   52.4914    9.6855 H        27   C27       0.0615
    863 H2'        46.9196   52.1973    7.3505 H        27   C27       0.0972
    864 H1'        49.4851   51.3260    7.8819 H        27   C27       0.2029
    865 H5         46.5219   47.8843   10.6971 H        27   C27       0.1928
    866 H6         47.7487   49.9790   10.6332 H        27   C27       0.1958
    867 H41        45.5785   46.0928    7.6285 H        27   C27       0.4234
    868 H42        45.5438   46.1006    9.3775 H        27   C27       0.4234
    869 HO2'       47.9750   54.2182    6.9619 H        27   C27       0.4186
    870 P          45.1360   54.7610    9.2810 P.3      28   G28       1.1662
    871 OP1        44.9100   56.2040    8.9790 O.co2    28   G28      -0.7760
    872 OP2        44.7110   54.2120   10.5990 O.co2    28   G28      -0.7760
    873 O5'        44.4360   53.8630    8.1350 O.3      28   G28      -0.4989
    874 C5'        44.4940   54.2610    6.7680 C.3      28   G28       0.0558
    875 C4'        44.2260   53.0870    5.8240 C.3      28   G28       0.1065
    876 O4'        44.9720   51.9110    6.2420 O.3      28   G28      -0.3548
    877 C3'        42.7870   52.6090    5.7560 C.3      28   G28       0.2022
    878 O3'        42.0100   53.4080    4.8550 O.3      28   G28      -0.5246
    879 C2'        42.9710   51.1930    5.2330 C.3      28   G28       0.0670
    880 O2'        43.2060   51.1380    3.8410 O.3      28   G28      -0.6139
    881 C1'        44.2020   50.7460    5.9890 C.3      28   G28       0.0191
    882 N9         43.8700   50.0970    7.2490 N.ar     28   G28       0.0492
    883 C8         44.0040   50.6190    8.5030 C.ar     28   G28       0.1374
    884 N7         43.6500   49.7990    9.4450 N.ar     28   G28      -0.5709
    885 C5         43.1620   48.6910    8.7720 C.ar     28   G28       0.1744
    886 C6         42.6040   47.4810    9.2740 C.2      28   G28       0.4770
    887 O6         42.4210   47.1490   10.4630 O.2      28   G28      -0.5597
    888 N1         42.2680   46.5940    8.2370 N.am     28   G28      -0.4787
    889 C2         42.4510   46.8480    6.8980 C.2      28   G28       0.7657
    890 N2         42.0350   45.9040    6.0530 N.pl3    28   G28      -0.9672
    891 N3         42.9700   47.9740    6.4220 N.2      28   G28      -0.6323
    892 C4         43.3000   48.8520    7.4140 C.ar     28   G28       0.1222
    893 H5'        43.7445   55.0328    6.5930 H        28   G28       0.0679
    894 H5''       45.4823   54.6695    6.5572 H        28   G28       0.0679
    895 H4'        44.5484   53.3658    4.8208 H        28   G28       0.1174
    896 H3'        42.3367   52.5983    6.7486 H        28   G28       0.0615
    897 H2'        42.1144   50.5740    5.4996 H        28   G28       0.0972
    898 H1'        44.7780   50.0591    5.3689 H        28   G28       0.2006
    899 H8         44.3691   51.6175    8.6931 H        28   G28       0.1640
    900 H1         41.8626   45.7053    8.4939 H        28   G28       0.3424
    901 H21        41.6257   45.0521    6.4092 H        28   G28       0.4364
    902 H22        42.1292   46.0409    5.0568 H        28   G28       0.4364
    903 HO2'       42.4838   51.5681    3.3773 H        28   G28       0.4186
    904 P          40.4150   53.4820    5.0320 P.3      29   A29       1.1662
    905 OP1        39.8840   54.3680    3.9660 O.co2    29   A29      -0.7760
    906 OP2        40.1160   53.7750    6.4600 O.co2    29   A29      -0.7760
    907 O5'        39.9330   51.9860    4.7430 O.3      29   A29      -0.4989
    908 C5'        39.8960   51.5010    3.4270 C.3      29   A29       0.0558
    909 C4'        39.5330   50.0310    3.4020 C.3      29   A29       0.1065
    910 O4'        40.3310   49.2970    4.3550 O.3      29   A29      -0.3548
    911 C3'        38.1210   49.7060    3.8300 C.3      29   A29       0.2022
    912 O3'        37.2250   49.9830    2.8310 O.3      29   A29      -0.5246
    913 C2'        38.2250   48.2250    4.0950 C.3      29   A29       0.0670
    914 O2'        38.1730   47.4470    2.9250 O.3      29   A29      -0.6139
    915 C1'        39.6000   48.1310    4.7480 C.3      29   A29       0.0394
    916 N9         39.5060   48.0840    6.1990 N.ar     29   A29      -0.0251
    917 C8         39.8050   49.0820    7.0810 C.ar     29   A29       0.2006
    918 N7         39.5930   48.7590    8.3360 N.ar     29   A29      -0.6073
    919 C5         39.0470   47.4880    8.2590 C.ar     29   A29       0.0515
    920 C6         38.5920   46.5860    9.2390 C.ar     29   A29       0.7009
    921 N6         38.5750   46.8650   10.5370 N.pl3    29   A29      -0.9019
    922 N1         38.1390   45.3870    8.8300 N.ar     29   A29      -0.7615
    923 C2         38.1120   45.1200    7.5230 C.ar     29   A29       0.5875
    924 N3         38.5130   45.8760    6.5110 N.ar     29   A29      -0.6997
    925 C4         38.9810   47.0610    6.9510 C.ar     29   A29       0.3053
    926 H5'        40.8767   51.6340    2.9703 H        29   A29       0.0679
    927 H5''       39.1557   52.0633    2.8579 H        29   A29       0.0679
    928 H4'        39.7078   49.6330    2.4024 H        29   A29       0.1174
    929 H3'        37.8608   50.2437    4.7417 H        29   A29       0.0615
    930 H2'        37.4508   47.9098    4.7945 H        29   A29       0.0972
    931 H1'        40.1142   47.2401    4.3874 H        29   A29       0.2007
    932 H8         40.1809   50.0472    6.7752 H        29   A29       0.1553
    933 H2         37.7080   44.1556    7.2527 H        29   A29       0.0473
    934 HO2'       37.5199   46.7515    3.0314 H        29   A29       0.4186
    935 H61        38.4071   45.9210   10.8545 H        29   A29       0.4115
    936 H62        38.6913   47.7331   11.0399 H        29   A29       0.4115
    937 P          35.8160   50.6310    3.1940 P.3      30   C30       1.1662
    938 OP1        35.1340   50.9650    1.9160 O.co2    30   C30      -0.7760
    939 OP2        36.0200   51.6990    4.2130 O.co2    30   C30      -0.7760
    940 O5'        35.0470   49.4090    3.8870 O.3      30   C30      -0.4989
    941 C5'        34.5020   48.4010    3.0700 C.3      30   C30       0.0558
    942 C4'        34.3230   47.1040    3.8210 C.3      30   C30       0.1065
    943 O4'        35.4230   46.8770    4.7030 O.3      30   C30      -0.3548
    944 C3'        33.1400   47.0490    4.7220 C.3      30   C30       0.2022
    945 O3'        32.0050   46.8110    3.9750 O.3      30   C30      -0.5246
    946 C2'        33.5240   45.8710    5.6140 C.3      30   C30       0.0670
    947 O2'        33.3990   44.6060    4.9980 O.3      30   C30      -0.6139
    948 C1'        34.9840   46.1630    5.8340 C.3      30   C30       0.0066
    949 N1         35.2500   46.9740    7.0720 N.am     30   C30      -0.0484
    950 C2         35.0860   46.3740    8.3400 C.2      30   C30       0.7538
    951 O2         34.7020   45.1840    8.4140 O.2      30   C30      -0.6252
    952 N3         35.3510   47.1240    9.4550 N.2      30   C30      -0.7584
    953 C4         35.7550   48.3940    9.3360 C.2      30   C30       0.8185
    954 N4         36.0090   49.0740   10.4550 N.pl3    30   C30      -0.9530
    955 C5         35.9270   49.0160    8.0570 C.2      30   C30      -0.5215
    956 C6         35.6520   48.2850    6.9680 C.2      30   C30       0.0053
    957 H5'        35.1714   48.2305    2.2269 H        30   C30       0.0679
    958 H5''       33.5336   48.7317    2.6946 H        30   C30       0.0679
    959 H4'        34.2646   46.2834    3.1059 H        30   C30       0.1174
    960 H3'        33.0441   47.9669    5.3020 H        30   C30       0.0615
    961 H2'        32.9753   45.9010    6.5553 H        30   C30       0.0972
    962 H1'        35.5313   45.2225    5.8980 H        30   C30       0.2029
    963 H5         36.2663   50.0379    7.9734 H        30   C30       0.1928
    964 H6         35.7479   48.7339    5.9904 H        30   C30       0.1958
    965 H41        35.8903   48.6294   11.3541 H        30   C30       0.4234
    966 H42        36.3201   50.0335   10.4033 H        30   C30       0.4234
    967 HO2'       33.5248   43.9164    5.6539 H        30   C30       0.4186
    968 P          30.6140   47.4440    4.4100 P.3      31   C31       1.1662
    969 OP1        29.6630   47.2530    3.2920 O.co2    31   C31      -0.7760
    970 OP2        30.8500   48.8080    4.9580 O.co2    31   C31      -0.7760
    971 O5'        30.1870   46.4610    5.5870 O.3      31   C31      -0.4989
    972 C5'        30.0000   45.0700    5.3090 C.3      31   C31       0.0558
    973 C4'        29.6800   44.3200    6.5760 C.3      31   C31       0.1065
    974 O4'        30.7970   44.4260    7.4730 O.3      31   C31      -0.3548
    975 C3'        28.5320   44.9070    7.3680 C.3      31   C31       0.2022
    976 O3'        27.2920   44.4610    6.8640 O.3      31   C31      -0.5246
    977 C2'        28.8090   44.4060    8.7710 C.3      31   C31       0.0670
    978 O2'        28.3500   43.1020    8.9710 O.3      31   C31      -0.6139
    979 C1'        30.3250   44.4190    8.8090 C.3      31   C31       0.0066
    980 N1         30.9250   45.5670    9.5640 N.am     31   C31      -0.0484
    981 C2         31.0300   45.4940   10.9690 C.2      31   C31       0.7538
    982 O2         30.5610   44.5170   11.5670 O.2      31   C31      -0.6252
    983 N3         31.6790   46.4870   11.6350 N.2      31   C31      -0.7584
    984 C4         32.2000   47.5090   10.9670 C.2      31   C31       0.8185
    985 N4         32.8210   48.4430   11.6700 N.pl3    31   C31      -0.9530
    986 C5         32.0780   47.6240    9.5460 C.2      31   C31      -0.5215
    987 C6         31.4560   46.6290    8.8880 C.2      31   C31       0.0053
    988 H5'        30.9132   44.6650    4.8729 H        31   C31       0.0679
    989 H5''       29.1789   44.9507    4.6021 H        31   C31       0.0679
    990 H4'        29.4807   43.2725    6.3498 H        31   C31       0.1174
    991 H3'        28.5772   45.9958    7.3429 H        31   C31       0.0615
    992 H2'        28.3942   45.0843    9.5166 H        31   C31       0.0972
    993 H1'        30.6586   43.4943    9.2799 H        31   C31       0.2029
    994 H5         32.4720   48.4807    9.0194 H        31   C31       0.1928
    995 H6         31.3754   46.6702    7.8118 H        31   C31       0.1958
    996 H41        32.8924   48.3558   12.6737 H        31   C31       0.4234
    997 H42        33.2234   49.2429   11.2027 H        31   C31       0.4234
    998 HO2'       27.8058   43.0715    9.7613 H        31   C31       0.4186
    999 P          26.0890   45.4980    6.7440 P.3      32   G32       1.1662
   1000 OP1        25.2100   45.0490    5.6500 O.co2    32   G32      -0.7760
   1001 OP2        26.6400   46.8770    6.7180 O.co2    32   G32      -0.7760
   1002 O5'        25.3320   45.2880    8.1180 O.3      32   G32      -0.4989
   1003 C5'        24.9150   43.9800    8.5260 C.3      32   G32       0.0558
   1004 C4'        24.7490   43.9330   10.0350 C.3      32   G32       0.1065
   1005 O4'        25.9660   44.4370   10.6610 O.3      32   G32      -0.3548
   1006 C3'        23.6140   44.7940   10.5860 C.3      32   G32       0.2022
   1007 O3'        23.0370   44.1440   11.7050 O.3      32   G32      -0.5246
   1008 C2'        24.3400   46.0770   10.9880 C.3      32   G32       0.0670
   1009 O2'        23.6810   46.7780   12.0040 O.3      32   G32      -0.6139
   1010 C1'        25.6540   45.5160   11.5120 C.3      32   G32       0.0191
   1011 N9         26.7680   46.4690   11.5240 N.ar     32   G32       0.0492
   1012 C8         27.2360   47.2260   10.4730 C.ar     32   G32       0.1374
   1013 N7         28.1680   48.0880   10.8110 N.ar     32   G32      -0.5709
   1014 C5         28.3420   47.8760   12.1690 C.ar     32   G32       0.1744
   1015 C6         29.2570   48.4700   13.0860 C.2      32   G32       0.4770
   1016 O6         30.1350   49.3270   12.8740 O.2      32   G32      -0.5597
   1017 N1         29.0910   47.9590   14.3720 N.am     32   G32      -0.4787
   1018 C2         28.1440   47.0290   14.7390 C.2      32   G32       0.7657
   1019 N2         28.1120   46.7070   16.0250 N.pl3    32   G32      -0.9672
   1020 N3         27.3100   46.4370   13.8910 N.2      32   G32      -0.6323
   1021 C4         27.4880   46.8750   12.6200 C.ar     32   G32       0.1222
   1022 H5'        25.6667   43.2511    8.2231 H        32   G32       0.0679
   1023 H5''       23.9647   43.7385    8.0499 H        32   G32       0.0679
   1024 H4'        24.5927   42.8993   10.3433 H        32   G32       0.1174
   1025 H3'        22.8651   44.9919    9.8192 H        32   G32       0.0615
   1026 H2'        24.5085   46.7160   10.1212 H        32   G32       0.0972
   1027 H1'        25.5001   45.1376   12.5226 H        32   G32       0.2006
   1028 H8         26.8700   47.1206    9.4624 H        32   G32       0.1640
   1029 H1         29.7142   48.2973   15.0912 H        32   G32       0.3424
   1030 H21        28.7515   47.1462   16.6717 H        32   G32       0.4364
   1031 H22        27.4481   46.0225   16.3578 H        32   G32       0.4364
   1032 HO2'       24.3101   47.3334   12.4702 H        32   G32       0.4186
   1033 P          21.4480   44.0660   11.9070 P.3      33   G33       1.1662
   1034 OP1        20.7860   43.9960   10.5640 O.co2    33   G33      -0.7760
   1035 OP2        21.0670   45.1340   12.8560 O.co2    33   G33      -0.7760
   1036 O5'        21.2540   42.6720   12.6660 O.3      33   G33      -0.4989
   1037 C5'        21.0970   41.4840   11.9400 C.3      33   G33       0.0558
   1038 C4'        20.4540   40.4190   12.7990 C.3      33   G33       0.1065
   1039 O4'        21.2180   40.2450   14.0170 O.3      33   G33      -0.3548
   1040 C3'        19.0660   40.7480   13.2930 C.3      33   G33       0.2022
   1041 O3'        18.1020   40.4560   12.3060 O.3      33   G33      -0.5246
   1042 C2'        18.9490   39.8300   14.4870 C.3      33   G33       0.0670
   1043 O2'        18.7070   38.4940   14.0930 O.3      33   G33      -0.6139
   1044 C1'        20.3460   39.9420   15.0910 C.3      33   G33       0.0191
   1045 N9         20.4920   40.9910   16.1010 N.ar     33   G33       0.0492
   1046 C8         21.2760   42.1190   15.9980 C.ar     33   G33       0.1374
   1047 N7         21.2280   42.8920   17.0480 N.ar     33   G33      -0.5709
   1048 C5         20.3550   42.2380   17.9130 C.ar     33   G33       0.1744
   1049 C6         19.9270   42.5960   19.2210 C.2      33   G33       0.4770
   1050 O6         20.2800   43.5680   19.9010 O.2      33   G33      -0.5597
   1051 N1         18.9980   41.6970   19.7360 N.am     33   G33      -0.4787
   1052 C2         18.5300   40.5820   19.0750 C.2      33   G33       0.7657
   1053 N2         17.6340   39.8270   19.7420 N.pl3    33   G33      -0.9672
   1054 N3         18.9640   40.1960   17.8650 N.2      33   G33      -0.6323
   1055 C4         19.8790   41.0700   17.3460 C.ar     33   G33       0.1222
   1056 H5'        22.0748   41.1348   11.6081 H        33   G33       0.0679
   1057 H5''       20.4679   41.6737   11.0703 H        33   G33       0.0679
   1058 H4'        20.4290   39.4777   12.2500 H        33   G33       0.1174
   1059 H3'        19.0018   41.7920   13.5998 H        33   G33       0.0615
   1060 H2'        18.1875   40.1814   15.1832 H        33   G33       0.0972
   1061 H1'        20.6287   38.9828   15.5247 H        33   G33       0.2006
   1062 H8         21.8754   42.3429   15.1279 H        33   G33       0.1640
   1063 H1         18.6400   41.8750   20.6635 H        33   G33       0.3424
   1064 H21        17.3253   40.1047   20.6627 H        33   G33       0.4364
   1065 H22        17.2714   38.9836   19.3209 H        33   G33       0.4364
   1066 HO2'       18.4555   37.9743   14.8600 H        33   G33       0.4186
   1067 P          16.8640   41.4570   12.1020 P.3      34   U34       1.1662
   1068 OP1        16.2020   41.0980   10.8200 O.co2    34   U34      -0.7760
   1069 OP2        17.3310   42.8600   12.3300 O.co2    34   U34      -0.7760
   1070 O5'        15.8990   41.0730   13.3270 O.3      34   U34      -0.4989
   1071 C5'        15.3470   39.7740   13.4270 C.3      34   U34       0.0558
   1072 C4'        14.6090   39.6130   14.7290 C.3      34   U34       0.1065
   1073 O4'        15.5500   39.7140   15.8170 O.3      34   U34      -0.3548
   1074 C3'        13.6270   40.7070   15.0420 C.3      34   U34       0.2022
   1075 O3'        12.4410   40.5390   14.3420 O.3      34   U34      -0.5246
   1076 C2'        13.4540   40.5290   16.5330 C.3      34   U34       0.0670
   1077 O2'        12.6430   39.4120   16.8500 O.3      34   U34      -0.6139
   1078 C1'        14.9010   40.2670   16.9510 C.3      34   U34       0.0674
   1079 N1         15.6430   41.5110   17.4190 N.am     34   U34       0.0418
   1080 C2         15.4300   41.9730   18.7020 C.2      34   U34       0.4687
   1081 O2         14.7200   41.3990   19.5100 O.2      34   U34      -0.5477
   1082 N3         16.1180   43.1220   19.0300 N.am     34   U34      -0.3549
   1083 C4         16.9870   43.8340   18.2230 C.2      34   U34       0.5952
   1084 O4         17.5630   44.8320   18.6720 O.2      34   U34      -0.5761
   1085 C5         17.1620   43.2900   16.9030 C.2      34   U34      -0.3635
   1086 C6         16.5130   42.1700   16.5640 C.2      34   U34      -0.1126
   1087 H5'        14.6547   39.6141   12.6004 H        34   U34       0.0679
   1088 H5''       16.1483   39.0370   13.3736 H        34   U34       0.0679
   1089 H4'        14.1095   38.6446   14.7570 H        34   U34       0.1174
   1090 H3'        14.0622   41.6822   14.8237 H        34   U34       0.0615
   1091 H2'        13.0695   41.4380   16.9956 H        34   U34       0.0972
   1092 H1'        14.9074   39.5303   17.7543 H        34   U34       0.1824
   1093 H3         15.9714   43.4834   19.9617 H        34   U34       0.3154
   1094 H5         17.8108   43.7806   16.1925 H        34   U34       0.1811
   1095 H6         16.6745   41.7601   15.5780 H        34   U34       0.2188
   1096 HO2'       12.0778   39.6281   17.5953 H        34   U34       0.4186
   1097 P          11.7880   41.8270   13.6560 P.3      35   G35       1.1662
   1098 OP1        10.9100   41.3680   12.5400 O.co2    35   G35      -0.7760
   1099 OP2        12.8690   42.8010   13.3860 O.co2    35   G35      -0.7760
   1100 O5'        10.9070   42.4430   14.8310 O.3      35   G35      -0.4989
   1101 C5'         9.7870   41.7550   15.3350 C.3      35   G35       0.0558
   1102 C4'         9.4620   42.2370   16.7300 C.3      35   G35       0.1065
   1103 O4'        10.6380   42.1320   17.5770 O.3      35   G35      -0.3548
   1104 C3'         9.1320   43.6970   16.8530 C.3      35   G35       0.2022
   1105 O3'         7.8580   44.0010   16.3690 O.3      35   G35      -0.5246
   1106 C2'         9.2600   43.8770   18.3580 C.3      35   G35       0.0670
   1107 O2'         8.2160   43.2590   19.0970 O.3      35   G35      -0.6139
   1108 C1'        10.5670   43.1370   18.5890 C.3      35   G35       0.0191
   1109 N9         11.7320   44.0220   18.4960 N.ar     35   G35       0.0492
   1110 C8         12.6980   44.0310   17.5240 C.ar     35   G35       0.1374
   1111 N7         13.6070   44.9460   17.7090 N.ar     35   G35      -0.5709
   1112 C5         13.2070   45.6060   18.8650 C.ar     35   G35       0.1744
   1113 C6         13.8180   46.6880   19.5800 C.2      35   G35       0.4770
   1114 O6         14.8550   47.3130   19.3030 O.2      35   G35      -0.5597
   1115 N1         13.0770   47.0510   20.7100 N.am     35   G35      -0.4787
   1116 C2         11.9050   46.4360   21.1060 C.2      35   G35       0.7657
   1117 N2         11.3340   46.9020   22.2280 N.pl3    35   G35      -0.9672
   1118 N3         11.3510   45.4050   20.4660 N.2      35   G35      -0.6323
   1119 C4         12.0430   45.0580   19.3500 C.ar     35   G35       0.1222
   1120 H5'        10.0040   40.6872   15.3647 H        35   G35       0.0679
   1121 H5''        8.9313   41.9317   14.6833 H        35   G35       0.0679
   1122 H4'         8.6519   41.6391   17.1476 H        35   G35       0.1174
   1123 H3'         9.8825   44.2965   16.3378 H        35   G35       0.0615
   1124 H2'         9.3548   44.9308   18.6199 H        35   G35       0.0972
   1125 H1'        10.5479   42.6635   19.5706 H        35   G35       0.2006
   1126 H8         12.7051   43.3476   16.6878 H        35   G35       0.1640
   1127 H1         13.4223   47.8142   21.2743 H        35   G35       0.3424
   1128 H21        11.7551   47.6730   22.7264 H        35   G35       0.4364
   1129 H22        10.4833   46.4816   22.5738 H        35   G35       0.4364
   1130 HO2'        7.3939   43.7313   18.9465 H        35   G35       0.4186
   1131 P           7.6010   45.4560   15.7420 P.3      36   G36       1.1662
   1132 OP1         6.1810   45.5120   15.3170 O.co2    36   G36      -0.7760
   1133 OP2         8.6700   45.7310   14.7500 O.co2    36   G36      -0.7760
   1134 O5'         7.8220   46.4560   16.9930 O.3      36   G36      -0.4989
   1135 C5'         6.9380   46.4030   18.1290 C.3      36   G36       0.0558
   1136 C4'         7.2150   47.5300   19.1110 C.3      36   G36       0.1065
   1137 O4'         8.5640   47.4270   19.6120 O.3      36   G36      -0.3548
   1138 C3'         7.1410   48.9140   18.5180 C.3      36   G36       0.2022
   1139 O3'         5.8050   49.3560   18.4730 O.3      36   G36      -0.5246
   1140 C2'         8.0040   49.7360   19.4660 C.3      36   G36       0.0670
   1141 O2'         7.2990   50.2400   20.5730 O.3      36   G36      -0.6139
   1142 C1'         9.0650   48.7270   19.9090 C.3      36   G36       0.0191
   1143 N9         10.3600   48.9140   19.2300 N.ar     36   G36       0.0492
   1144 C8         10.7760   48.3230   18.0630 C.ar     36   G36       0.1374
   1145 N7         11.9630   48.7050   17.6770 N.ar     36   G36      -0.5709
   1146 C5         12.3420   49.6510   18.6120 C.ar     36   G36       0.1744
   1147 C6         13.5470   50.4160   18.7230 C.2      36   G36       0.4770
   1148 O6         14.5400   50.4180   17.9760 O.2      36   G36      -0.5597
   1149 N1         13.5130   51.2730   19.8200 N.am     36   G36      -0.4787
   1150 C2         12.4730   51.3690   20.7060 C.2      36   G36       0.7657
   1151 N2         12.6570   52.2010   21.7260 N.pl3    36   G36      -0.9672
   1152 N3         11.3590   50.6420   20.6380 N.2      36   G36      -0.6323
   1153 C4         11.3610   49.8040   19.5710 C.ar     36   G36       0.1222
   1154 H5'         5.9088   46.4844   17.7795 H        36   G36       0.0679
   1155 H5''        7.0674   45.4474   18.6372 H        36   G36       0.0679
   1156 H4'         6.5164   47.4592   19.9447 H        36   G36       0.1174
   1157 H3'         7.5726   48.9181   17.5171 H        36   G36       0.0615
   1158 H2'         8.4752   50.5549   18.9225 H        36   G36       0.0972
   1159 H1'         9.2117   48.8144   20.9855 H        36   G36       0.2006
   1160 H8         10.1778   47.6094   17.5159 H        36   G36       0.1640
   1161 H1         14.3146   51.8679   19.9737 H        36   G36       0.3424
   1162 H21        13.5121   52.7340   21.7953 H        36   G36       0.4364
   1163 H22        11.9416   52.3003   22.4320 H        36   G36       0.4364
   1164 HO2'        7.4068   51.1930   20.6148 H        36   G36       0.4186
   1165 P           5.2160   49.9580   17.1070 P.3      37   U37       1.1662
   1166 OP1         3.7420   50.0300   17.2460 O.co2    37   U37      -0.7760
   1167 OP2         5.8040   49.2200   15.9610 O.co2    37   U37      -0.7760
   1168 O5'         5.8260   51.4350   17.0980 O.3      37   U37      -0.4989
   1169 C5'         5.5590   52.3190   18.1700 C.3      37   U37       0.0558
   1170 C4'         6.6490   53.3600   18.2810 C.3      37   U37       0.1065
   1171 O4'         7.8940   52.7080   18.5980 O.3      37   U37      -0.3548
   1172 C3'         6.9610   54.1130   17.0010 C.3      37   U37       0.2022
   1173 O3'         6.0020   55.1290   16.7590 O.3      37   U37      -0.5246
   1174 C2'         8.3550   54.6700   17.3130 C.3      37   U37       0.0670
   1175 O2'         8.3360   55.8730   18.0670 O.3      37   U37      -0.6139
   1176 C1'         8.9790   53.5150   18.1300 C.3      37   U37       0.0674
   1177 N1          9.9570   52.6560   17.3140 N.am     37   U37       0.0418
   1178 C2         11.3110   52.9580   17.3410 C.2      37   U37       0.4687
   1179 O2         11.7920   53.8060   18.0610 O.2      37   U37      -0.5477
   1180 N3         12.1000   52.1840   16.5070 N.am     37   U37      -0.3549
   1181 C4         11.6760   51.2020   15.6140 C.2      37   U37       0.5952
   1182 O4         12.5050   50.5900   14.9230 O.2      37   U37      -0.5761
   1183 C5         10.2490   50.9730   15.6100 C.2      37   U37      -0.3635
   1184 C6          9.4640   51.6890   16.4430 C.2      37   U37      -0.1126
   1185 H5'         5.5093   51.7513   19.0992 H        37   U37       0.0679
   1186 H5''        4.6034   52.8146   17.9989 H        37   U37       0.0679
   1187 H4'         6.3973   54.0692   19.0695 H        37   U37       0.1174
   1188 H3'         7.0069   53.4249   16.1569 H        37   U37       0.0615
   1189 H2'         8.9135   54.8176   16.3886 H        37   U37       0.0972
   1190 H1'         9.5056   53.9325   18.9882 H        37   U37       0.1824
   1191 H3         13.0953   52.3500   16.5509 H        37   U37       0.3154
   1192 H5          9.8156   50.2376   14.9483 H        37   U37       0.1811
   1193 H6          8.4004   51.5020   16.4329 H        37   U37       0.2188
   1194 HO2'        9.0912   56.4144   17.8257 H        37   U37       0.4186
   1195 P           5.0370   55.0470   15.4670 P.3      38   A38       1.1662
   1196 OP1         4.0270   56.1340   15.5860 O.co2    38   A38      -0.7760
   1197 OP2         4.5810   53.6350   15.2810 O.co2    38   A38      -0.7760
   1198 O5'         6.0340   55.3890   14.2570 O.3      38   A38      -0.4989
   1199 C5'         6.3990   56.7400   13.9400 C.3      38   A38       0.0558
   1200 C4'         7.4740   56.7280   12.8710 C.3      38   A38       0.1065
   1201 O4'         7.5670   58.0200   12.2200 O.3      38   A38      -0.3548
   1202 C3'         8.8860   56.4180   13.3830 C.3      38   A38       0.2022
   1203 O3'         9.5380   55.5810   12.4430 O.3      38   A38      -0.5246
   1204 C2'         9.5060   57.8160   13.4310 C.3      38   A38       0.0670
   1205 O2'        10.9260   57.8150   13.4030 O.3      38   A38      -0.6139
   1206 C1'         8.9200   58.3580   12.1460 C.3      38   A38       0.0394
   1207 N9          9.0700   59.7820   11.9230 N.ar     38   A38      -0.0251
   1208 C8          9.4870   60.7300   12.8190 C.ar     38   A38       0.2006
   1209 N7          9.6850   61.9140   12.2890 N.ar     38   A38      -0.6073
   1210 C5          9.3830   61.7300   10.9490 C.ar     38   A38       0.0515
   1211 C6          9.4020   62.6020    9.8260 C.ar     38   A38       0.7009
   1212 N6          9.7020   63.9090    9.8980 N.pl3    38   A38      -0.9019
   1213 N1          9.0360   62.0850    8.6260 N.ar     38   A38      -0.7615
   1214 C2          8.7190   60.7770    8.5490 C.ar     38   A38       0.5875
   1215 N3          8.6990   59.8610    9.5180 N.ar     38   A38      -0.6997
   1216 C4          9.0220   60.4110   10.7080 C.ar     38   A38       0.3053
   1217 H5'         5.5248   57.2769   13.5718 H        38   A38       0.0679
   1218 H5''        6.7798   57.2338   14.8340 H        38   A38       0.0679
   1219 H4'         7.2073   55.9826   12.1218 H        38   A38       0.1174
   1220 H3'         8.8592   55.9604   14.3719 H        38   A38       0.0615
   1221 H2'         9.1361   58.3743   14.2910 H        38   A38       0.0972
   1222 H1'         9.3670   57.8248   11.3070 H        38   A38       0.2007
   1223 H8          9.6392   60.5218   13.8678 H        38   A38       0.1553
   1224 H2          8.4432   60.4219    7.5670 H        38   A38       0.0473
   1225 H61         9.3469   64.5308   10.6103 H        38   A38       0.4115
   1226 H62        10.3200   64.2933    9.1976 H        38   A38       0.4115
   1227 HO2'       11.2441   58.7126   13.2814 H        38   A38       0.4186
   1228 P           9.7480   54.0250   12.7450 P.3      39   U39       1.1662
   1229 OP1         8.4700   53.3080   12.4600 O.co2    39   U39      -0.7760
   1230 OP2        10.3810   53.9070   14.0700 O.co2    39   U39      -0.7760
   1231 O5'        10.8470   53.6270   11.6490 O.3      39   U39      -0.4989
   1232 C5'        11.1010   52.2600   11.2990 C.3      39   U39       0.0558
   1233 C4'        12.2390   52.1560   10.2680 C.3      39   U39       0.1065
   1234 O4'        11.9560   52.9660    9.0940 O.3      39   U39      -0.3548
   1235 C3'        13.6170   52.6130   10.7410 C.3      39   U39       0.2022
   1236 O3'        14.6090   51.8320   10.1100 O.3      39   U39      -0.5246
   1237 C2'        13.6790   54.0490   10.2610 C.3      39   U39       0.0670
   1238 O2'        15.0080   54.4940   10.1040 O.3      39   U39      -0.6139
   1239 C1'        12.9870   53.9170    8.9110 C.3      39   U39       0.0674
   1240 N1         12.4010   55.1920    8.3770 N.am     39   U39       0.0418
   1241 C2         13.1050   55.9020    7.4300 C.2      39   U39       0.4687
   1242 O2         14.1790   55.5460    7.0050 O.2      39   U39      -0.5477
   1243 N3         12.4900   57.0470    6.9760 N.am     39   U39      -0.3549
   1244 C4         11.2670   57.5580    7.3850 C.2      39   U39       0.5952
   1245 O4         10.8490   58.6150    6.9000 O.2      39   U39      -0.5761
   1246 C5         10.5910   56.7670    8.3880 C.2      39   U39      -0.3635
   1247 C6         11.1660   55.6350    8.8310 C.2      39   U39      -0.1126
   1248 H5'        10.1953   51.8268   10.8746 H        39   U39       0.0679
   1249 H5''       11.3777   51.7056   12.1958 H        39   U39       0.0679
   1250 H4'        12.3165   51.1157    9.9519 H        39   U39       0.1174
   1251 H3'        13.7007   52.5557   11.8263 H        39   U39       0.0615
   1252 H2'        13.1205   54.7088   10.9250 H        39   U39       0.0972
   1253 H1'        13.7012   53.5269    8.1859 H        39   U39       0.1824
   1254 H3         12.9830   57.5721    6.2680 H        39   U39       0.3154
   1255 H5          9.6342   57.0817    8.7776 H        39   U39       0.1811
   1256 H6         10.6452   55.0456    9.5711 H        39   U39       0.2188
   1257 HO2'       15.6117   53.8134   10.4104 H        39   U39       0.4186
   1258 P          15.3270   50.6780   10.9150 P.3      40   A40       1.1662
   1259 OP1        16.2050   49.9610    9.9870 O.co2    40   A40      -0.7760
   1260 OP2        14.2930   49.9320   11.6700 O.co2    40   A40      -0.7760
   1261 O5'        16.2070   51.4870   11.9590 O.3      40   A40      -0.4989
   1262 C5'        17.2760   52.2670   11.5230 C.3      40   A40       0.0558
   1263 C4'        18.3230   52.3720   12.6110 C.3      40   A40       0.1065
   1264 O4'        17.8200   53.1580   13.7270 O.3      40   A40      -0.3548
   1265 C3'        18.7590   51.0470   13.2180 C.3      40   A40       0.2022
   1266 O3'        20.1150   51.1640   13.6230 O.3      40   A40      -0.5246
   1267 C2'        17.8400   50.9420   14.4340 C.3      40   A40       0.0670
   1268 O2'        18.3290   50.0250   15.4040 O.3      40   A40      -0.6139
   1269 C1'        17.9010   52.3970   14.9100 C.3      40   A40       0.0394
   1270 N9         16.8200   52.8300   15.7810 N.ar     40   A40      -0.0251
   1271 C8         15.5040   52.4760   15.7100 C.ar     40   A40       0.2006
   1272 N7         14.7460   53.0590   16.6060 N.ar     40   A40      -0.6073
   1273 C5         15.6010   53.9300   17.2390 C.ar     40   A40       0.0515
   1274 C6         15.4000   54.8710   18.2660 C.ar     40   A40       0.7009
   1275 N6         14.2280   55.0360   18.8880 N.pl3    40   A40      -0.9019
   1276 N1         16.4740   55.5640   18.6990 N.ar     40   A40      -0.7615
   1277 C2         17.6720   55.3270   18.1380 C.ar     40   A40       0.5875
   1278 N3         17.9820   54.4790   17.1550 N.ar     40   A40      -0.6997
   1279 C4         16.8890   53.7980   16.7500 C.ar     40   A40       0.3053
   1280 H5'        17.7197   51.8083   10.6393 H        40   A40       0.0679
   1281 H5''       16.9162   53.2644   11.2703 H        40   A40       0.0679
   1282 H4'        19.2007   52.8721   12.2015 H        40   A40       0.1174
   1283 H3'        18.6128   50.2170   12.5267 H        40   A40       0.0615
   1284 H2'        16.8271   50.6780   14.1300 H        40   A40       0.0972
   1285 H1'        18.8583   52.5814   15.3975 H        40   A40       0.2007
   1286 H8         15.1213   51.7776   14.9804 H        40   A40       0.1553
   1287 H2         18.4957   55.9006   18.5367 H        40   A40       0.0473
   1288 HO2'       19.1084   50.3920   15.8277 H        40   A40       0.4186
   1289 H61        13.6002   54.4319   18.3771 H        40   A40       0.4115
   1290 H62        14.0197   55.6254   19.6813 H        40   A40       0.4115
   1291 P          21.3030   50.6570   12.6990 P.3      41   G41       1.1662
   1292 OP1        22.1950   51.8320   12.4400 O.co2    41   G41      -0.7760
   1293 OP2        20.7330   49.8680   11.5750 O.co2    41   G41      -0.7760
   1294 O5'        22.0530   49.6470   13.6670 O.3      41   G41      -0.4989
   1295 C5'        21.4280   48.4660   14.1240 C.3      41   G41       0.0558
   1296 C4'        22.2390   47.9030   15.2700 C.3      41   G41       0.1065
   1297 O4'        23.5330   47.4920   14.7630 O.3      41   G41      -0.3548
   1298 C3'        22.5520   48.9240   16.3550 C.3      41   G41       0.2022
   1299 O3'        21.5820   48.8690   17.3660 O.3      41   G41      -0.5246
   1300 C2'        23.9270   48.5000   16.8460 C.3      41   G41       0.0670
   1301 O2'        23.8780   47.4170   17.7540 O.3      41   G41      -0.6139
   1302 C1'        24.5760   48.0430   15.5560 C.3      41   G41       0.0191
   1303 N9         25.2540   49.0880   14.7870 N.ar     41   G41       0.0492
   1304 C8         25.1080   49.3110   13.4440 C.ar     41   G41       0.1374
   1305 N7         25.8820   50.2580   12.9810 N.ar     41   G41      -0.5709
   1306 C5         26.6480   50.6420   14.0640 C.ar     41   G41       0.1744
   1307 C6         27.6840   51.5980   14.1410 C.2      41   G41       0.4770
   1308 O6         28.1530   52.2930   13.2230 O.2      41   G41      -0.5597
   1309 N1         28.1850   51.7270   15.4370 N.am     41   G41      -0.4787
   1310 C2         27.7860   50.9610   16.5000 C.2      41   G41       0.7657
   1311 N2         28.3970   51.2040   17.6660 N.pl3    41   G41      -0.9672
   1312 N3         26.8510   50.0090   16.4260 N.2      41   G41      -0.6323
   1313 C4         26.3210   49.9030   15.1810 C.ar     41   G41       0.1222
   1314 H5'        20.4184   48.6937   14.4659 H        41   G41       0.0679
   1315 H5''       21.3846   47.7379   13.3140 H        41   G41       0.0679
   1316 H4'        21.7223   47.0472   15.7044 H        41   G41       0.1174
   1317 H3'        22.5961   49.9262   15.9286 H        41   G41       0.0615
   1318 H2'        24.4654   49.3449   17.2754 H        41   G41       0.0972
   1319 H1'        25.2942   47.2558   15.7854 H        41   G41       0.2006
   1320 H8         24.4182   48.7567   12.8249 H        41   G41       0.1640
   1321 H1         28.8888   52.4323   15.6022 H        41   G41       0.3424
   1322 H21        29.1060   51.9209   17.7248 H        41   G41       0.4364
   1323 H22        28.1490   50.6705   18.4869 H        41   G41       0.4364
   1324 HO2'       24.5283   47.5505   18.4475 H        41   G41       0.4186
   1325 P          20.7890   50.1910   17.8190 P.3      42   U42       1.1662
   1326 OP1        19.6740   49.7360   18.6750 O.co2    42   U42      -0.7760
   1327 OP2        20.5170   51.0390   16.6380 O.co2    42   U42      -0.7760
   1328 O5'        21.8570   50.9740   18.6990 O.3      42   U42      -0.4989
   1329 C5'        22.1520   50.5800   20.0130 C.3      42   U42       0.0558
   1330 C4'        22.9580   51.6670   20.6780 C.3      42   U42       0.1065
   1331 O4'        24.2250   51.7400   20.0130 O.3      42   U42      -0.3548
   1332 C3'        22.3200   53.0570   20.5670 C.3      42   U42       0.2022
   1333 O3'        21.6220   53.4930   21.8020 O.3      42   U42      -0.5246
   1334 C2'        23.4490   53.9990   20.1720 C.3      42   U42       0.0670
   1335 O2'        23.7850   54.9180   21.1950 O.3      42   U42      -0.6139
   1336 C1'        24.6340   53.0730   19.8440 C.3      42   U42       0.0674
   1337 N1         25.1320   53.2600   18.4370 N.am     42   U42       0.0418
   1338 C2         26.2580   54.0520   18.2210 C.2      42   U42       0.4687
   1339 O2         26.9600   54.4730   19.1270 O.2      42   U42      -0.5477
   1340 N3         26.5560   54.2920   16.8890 N.am     42   U42      -0.3549
   1341 C4         25.8060   53.8930   15.7880 C.2      42   U42       0.5952
   1342 O4         26.1670   54.2010   14.6530 O.2      42   U42      -0.5761
   1343 C5         24.6270   53.1120   16.1010 C.2      42   U42      -0.3635
   1344 C6         24.3400   52.8350   17.3770 C.2      42   U42      -0.1126
   1345 H5'        21.2252   50.4221   20.5646 H        42   U42       0.0679
   1346 H5''       22.7292   49.6555   19.9963 H        42   U42       0.0679
   1347 H4'        23.1106   51.4180   21.7282 H        42   U42       0.1174
   1348 H3'        21.5939   53.0352   19.7544 H        42   U42       0.0615
   1349 H2'        23.1624   54.5480   19.2750 H        42   U42       0.0972
   1350 H1'        25.4484   53.2829   20.5374 H        42   U42       0.1824
   1351 H3         27.4028   54.8085   16.6988 H        42   U42       0.3154
   1352 H5         23.9844   52.7560   15.3093 H        42   U42       0.1811
   1353 H6         23.4544   52.2559   17.5934 H        42   U42       0.2188
   1354 HO2'       23.8649   54.4522   22.0306 H        42   U42       0.4186
   1355 P          21.8540   52.8140   23.2620 P.3      43   C43       1.1662
   1356 OP1        23.2800   53.0260   23.6490 O.co2    43   C43      -0.7760
   1357 OP2        21.2560   51.4390   23.2490 O.co2    43   C43      -0.7760
   1358 O5'        20.9220   53.6920   24.2300 O.3      43   C43      -0.4989
   1359 C5'        20.5350   55.0280   23.8940 C.3      43   C43       0.0558
   1360 C4'        19.0410   55.2200   24.0820 C.3      43   C43       0.1065
   1361 O4'        18.4610   55.4370   22.7870 O.3      43   C43      -0.3548
   1362 C3'        18.2750   54.0180   24.6340 C.3      43   C43       0.2022
   1363 O3'        18.2760   54.0210   26.0460 O.3      43   C43      -0.5246
   1364 C2'        16.8790   54.2450   24.0720 C.3      43   C43       0.0670
   1365 O2'        16.1250   55.1890   24.8080 O.3      43   C43      -0.6139
   1366 C1'        17.2000   54.7980   22.6960 C.3      43   C43       0.0066
   1367 N1         17.2280   53.7600   21.5960 N.am     43   C43      -0.0484
   1368 C2         16.0150   53.2140   21.1260 C.2      43   C43       0.7538
   1369 O2         14.9450   53.5610   21.6320 O.2      43   C43      -0.6252
   1370 N3         16.0520   52.3150   20.1140 N.2      43   C43      -0.7584
   1371 C4         17.2080   51.9440   19.5820 C.2      43   C43       0.8185
   1372 N4         17.1560   51.0570   18.5970 N.pl3    43   C43      -0.9530
   1373 C5         18.4630   52.4530   20.0510 C.2      43   C43      -0.5215
   1374 C6         18.4270   53.3600   21.0430 C.2      43   C43       0.0053
   1375 H5'        20.7920   55.2232   22.8529 H        43   C43       0.0679
   1376 H5''       21.0708   55.7291   24.5339 H        43   C43       0.0679
   1377 H4'        18.8608   56.0898   24.7137 H        43   C43       0.1174
   1378 H3'        18.6952   53.0875   24.2524 H        43   C43       0.0615
   1379 H2'        16.3394   53.3015   23.9907 H        43   C43       0.0972
   1380 H1'        16.4510   55.5483   22.4428 H        43   C43       0.2029
   1381 H5         19.3987   52.1218   19.6253 H        43   C43       0.1928
   1382 H6         19.3502   53.7816   21.4123 H        43   C43       0.1958
   1383 H41        16.2638   50.7031   18.2826 H        43   C43       0.4234
   1384 H42        18.0086   50.7355   18.1614 H        43   C43       0.4234
   1385 HO2'       15.3059   55.3761   24.3435 H        43   C43       0.4186
   1386 P          18.2590   52.6370   26.8570 P.3      44   C44       1.1662
   1387 OP1        18.4830   52.9750   28.2840 O.co2    44   C44      -0.7760
   1388 OP2        19.1720   51.6700   26.1900 O.co2    44   C44      -0.7760
   1389 O5'        16.7570   52.1110   26.6530 O.3      44   C44      -0.4989
   1390 C5'        15.6840   52.7490   27.3070 C.3      44   C44       0.0558
   1391 C4'        14.3830   52.0070   27.0730 C.3      44   C44       0.1065
   1392 O4'        13.9900   52.1590   25.6850 O.3      44   C44      -0.3548
   1393 C3'        14.4470   50.5040   27.3040 C.3      44   C44       0.2022
   1394 O3'        14.2040   50.1860   28.6530 O.3      44   C44      -0.5246
   1395 C2'        13.3590   49.9710   26.3850 C.3      44   C44       0.0670
   1396 O2'        12.0660   50.0140   26.9630 O.3      44   C44      -0.6139
   1397 C1'        13.4720   50.9220   25.1840 C.3      44   C44       0.0066
   1398 N1         14.3940   50.3710   24.0400 N.am     44   C44      -0.0484
   1399 C2         13.8750   49.4440   23.0920 C.2      44   C44       0.7538
   1400 O2         12.6770   49.1250   23.1350 O.2      44   C44      -0.6252
   1401 N3         14.7030   48.9690   22.1170 N.2      44   C44      -0.7584
   1402 C4         15.9980   49.3400   22.0910 C.2      44   C44       0.8185
   1403 N4         16.7770   48.8430   21.1200 N.pl3    44   C44      -0.9530
   1404 C5         16.5550   50.2260   23.0740 C.2      44   C44      -0.5215
   1405 C6         15.7320   50.7110   24.0080 C.2      44   C44       0.0053
   1406 H5'        15.8879   52.7808   28.3773 H        44   C44       0.0679
   1407 H5''       15.5888   53.7672   26.9298 H        44   C44       0.0679
   1408 H4'        13.6093   52.4334   27.7115 H        44   C44       0.1174
   1409 H3'        15.4193   50.1185   26.9971 H        44   C44       0.0615
   1410 H2'        13.5964   48.9525   26.0777 H        44   C44       0.0972
   1411 H1'        12.4753   51.0966   24.7788 H        44   C44       0.2029
   1412 H5         17.6019   50.4909   23.0589 H        44   C44       0.1928
   1413 H6         16.1225   51.3851   24.7559 H        44   C44       0.1958
   1414 H41        16.3873   48.2148   20.4318 H        44   C44       0.4234
   1415 H42        17.7536   49.0967   21.0765 H        44   C44       0.4234
   1416 HO2'       11.7726   49.1211   27.1587 H        44   C44       0.4186
   1417 P          15.0690   49.0350   29.3720 P.3      45   A45       1.1662
   1418 OP1        14.7250   49.0670   30.8200 O.co2    45   A45      -0.7760
   1419 OP2        16.4950   49.1970   28.9540 O.co2    45   A45      -0.7760
   1420 O5'        14.4810   47.6790   28.7120 O.3      45   A45      -0.4989
   1421 C5'        13.1240   47.2900   29.0010 C.3      45   A45       0.0558
   1422 C4'        12.5760   46.2490   28.0260 C.3      45   A45       0.1065
   1423 O4'        12.4780   46.7850   26.6760 O.3      45   A45      -0.3548
   1424 C3'        13.3960   44.9880   27.8340 C.3      45   A45       0.2022
   1425 O3'        13.2820   44.1120   28.9260 O.3      45   A45      -0.5246
   1426 C2'        12.7360   44.4340   26.5850 C.3      45   A45       0.0670
   1427 O2'        11.4360   43.9220   26.8400 O.3      45   A45      -0.6139
   1428 C1'        12.6570   45.7120   25.7420 C.3      45   A45       0.0394
   1429 N9         13.8780   45.9440   24.9250 N.ar     45   A45      -0.0251
   1430 C8         14.9390   46.7720   25.2110 C.ar     45   A45       0.2006
   1431 N7         15.9120   46.7270   24.3190 N.ar     45   A45      -0.6073
   1432 C5         15.4760   45.7880   23.4000 C.ar     45   A45       0.0515
   1433 C6         16.0300   45.3010   22.1800 C.ar     45   A45       0.7009
   1434 N6         17.2050   45.7040   21.6800 N.pl3    45   A45      -0.9019
   1435 N1         15.3210   44.3760   21.4920 N.ar     45   A45      -0.7615
   1436 C2         14.1400   43.9740   21.9840 C.ar     45   A45       0.5875
   1437 N3         13.5080   44.3720   23.0980 N.ar     45   A45      -0.6997
   1438 C4         14.2300   45.2890   23.7640 C.ar     45   A45       0.3053
   1439 H5'        13.0900   46.8734   30.0077 H        45   A45       0.0679
   1440 H5''       12.4888   48.1750   28.9647 H        45   A45       0.0679
   1441 H4'        11.5772   45.9624   28.3551 H        45   A45       0.1174
   1442 H3'        14.4409   45.2324   27.6425 H        45   A45       0.0615
   1443 H2'        13.3667   43.6851   26.1060 H        45   A45       0.0972
   1444 H1'        11.7889   45.6574   25.0851 H        45   A45       0.2007
   1445 H8         14.9732   47.4027   26.0871 H        45   A45       0.1553
   1446 H2         13.6254   43.2243   21.4012 H        45   A45       0.0473
   1447 H61        17.2693   45.4431   20.7064 H        45   A45       0.4115
   1448 H62        17.9194   46.1949   22.1984 H        45   A45       0.4115
   1449 HO2'       11.5041   43.1232   27.3681 H        45   A45       0.4186
   1450 P          14.5600   43.2560   29.3790 P.3      46   C46       1.1662
   1451 OP1        14.1210   42.3950   30.5090 O.co2    46   C46      -0.7760
   1452 OP2        15.7060   44.1840   29.5620 O.co2    46   C46      -0.7760
   1453 O5'        14.8750   42.3380   28.0880 O.3      46   C46      -0.4989
   1454 C5'        14.1760   41.1170   27.9070 C.3      46   C46       0.0558
   1455 C4'        14.1900   40.6350   26.4620 C.3      46   C46       0.1065
   1456 O4'        14.3920   41.7280   25.5340 O.3      46   C46      -0.3548
   1457 C3'        15.2890   39.6730   26.0980 C.3      46   C46       0.2022
   1458 O3'        15.0270   38.3780   26.6300 O.3      46   C46      -0.5246
   1459 C2'        15.2030   39.7130   24.5700 C.3      46   C46       0.0670
   1460 O2'        14.1170   38.9610   24.0410 O.3      46   C46      -0.6139
   1461 C1'        14.9720   41.2110   24.3220 C.3      46   C46       0.0066
   1462 N1         16.2680   41.9840   23.9930 N.am     46   C46      -0.0484
   1463 C2         16.9500   41.7650   22.7670 C.2      46   C46       0.7538
   1464 O2         16.4760   41.0080   21.9150 O.2      46   C46      -0.6252
   1465 N3         18.1240   42.4100   22.5540 N.2      46   C46      -0.7584
   1466 C4         18.6130   43.2480   23.4780 C.2      46   C46       0.8185
   1467 N4         19.7540   43.8870   23.2020 N.pl3    46   C46      -0.9530
   1468 C5         17.9530   43.4750   24.7200 C.2      46   C46      -0.5215
   1469 C6         16.8000   42.8350   24.9320 C.2      46   C46       0.0053
   1470 H5'        14.6402   40.3545   28.5324 H        46   C46       0.0679
   1471 H5''       13.1419   41.2520   28.2240 H        46   C46       0.0679
   1472 H4'        13.2308   40.1659   26.2429 H        46   C46       0.1174
   1473 H3'        16.2554   40.0430   26.4404 H        46   C46       0.0615
   1474 H2'        16.1445   39.3916   24.1247 H        46   C46       0.0972
   1475 H1'        14.2628   41.3343   23.5035 H        46   C46       0.2029
   1476 H5         18.3694   44.1397   25.4624 H        46   C46       0.1928
   1477 H6         16.2738   42.9897   25.8624 H        46   C46       0.1958
   1478 H41        20.2210   43.7287   22.3205 H        46   C46       0.4234
   1479 H42        20.1493   44.5281   23.8749 H        46   C46       0.4234
   1480 HO2'       13.3018   39.2310   24.4700 H        46   C46       0.4186
   1481 P          16.2420   37.4350   27.1190 P.3      47   G47       1.1662
   1482 OP1        15.6430   36.2790   27.8330 O.co2    47   G47      -0.7760
   1483 OP2        17.2610   38.2790   27.8030 O.co2    47   G47      -0.7760
   1484 O5'        16.8580   36.9140   25.7420 O.3      47   G47      -0.4989
   1485 C5'        16.0470   36.1440   24.8600 C.3      47   G47       0.0558
   1486 C4'        16.7650   35.8860   23.5570 C.3      47   G47       0.1065
   1487 O4'        17.0270   37.1310   22.8850 O.3      47   G47      -0.3548
   1488 C3'        18.1130   35.2380   23.7080 C.3      47   G47       0.2022
   1489 O3'        17.9490   33.8580   23.7760 O.3      47   G47      -0.5246
   1490 C2'        18.8570   35.6740   22.4420 C.3      47   G47       0.0670
   1491 O2'        18.7060   34.7740   21.3590 O.3      47   G47      -0.6139
   1492 C1'        18.2080   37.0140   22.1110 C.3      47   G47       0.0191
   1493 N9         19.0600   38.1530   22.4030 N.ar     47   G47       0.0492
   1494 C8         19.0680   38.9060   23.5510 C.ar     47   G47       0.1374
   1495 N7         19.9290   39.8860   23.5300 N.ar     47   G47      -0.5709
   1496 C5         20.5310   39.7710   22.2900 C.ar     47   G47       0.1744
   1497 C6         21.5350   40.5680   21.7000 C.2      47   G47       0.4770
   1498 O6         22.0910   41.5710   22.1910 O.2      47   G47      -0.5597
   1499 N1         21.8770   40.1100   20.4040 N.am     47   G47      -0.4787
   1500 C2         21.3220   38.9880   19.7960 C.2      47   G47       0.7657
   1501 N2         21.7600   38.6820   18.5620 N.pl3    47   G47      -0.9672
   1502 N3         20.3530   38.2530   20.3440 N.2      47   G47      -0.6323
   1503 C4         20.0140   38.6980   21.5860 C.ar     47   G47       0.1222
   1504 H5'        15.1242   36.6876   24.6575 H        47   G47       0.0679
   1505 H5''       15.8066   35.1916   25.3324 H        47   G47       0.0679
   1506 H4'        16.1376   35.2617   22.9208 H        47   G47       0.1174
   1507 H3'        18.6201   35.6090   24.5987 H        47   G47       0.0615
   1508 H2'        19.9148   35.8170   22.6625 H        47   G47       0.0972
   1509 H1'        17.9434   37.0295   21.0537 H        47   G47       0.2006
   1510 H8         18.4218   38.7058   24.3929 H        47   G47       0.1640
   1511 H1         22.5696   40.6324   19.8868 H        47   G47       0.3424
   1512 H21        22.4775   39.2441   18.1268 H        47   G47       0.4364
   1513 H22        21.3714   37.8900   18.0702 H        47   G47       0.4364
   1514 HO2'       19.5644   34.4212   21.1134 H        47   G47       0.4186
   1515 P          18.8560   33.0070   24.7590 P.3      48   A48       1.1662
   1516 OP1        18.2610   31.6450   24.8370 O.co2    48   A48      -0.7760
   1517 OP2        19.0730   33.8080   25.9980 O.co2    48   A48      -0.7760
   1518 O5'        20.2500   32.9330   23.9720 O.3      48   A48      -0.4989
   1519 C5'        20.3610   32.1560   22.7760 C.3      48   A48       0.0558
   1520 C4'        21.7440   32.2950   22.1610 C.3      48   A48       0.1065
   1521 O4'        21.8780   33.6180   21.6180 O.3      48   A48      -0.3548
   1522 C3'        22.8950   32.1480   23.1390 C.3      48   A48       0.2022
   1523 O3'        23.3040   30.8090   23.2210 O.3      48   A48      -0.5246
   1524 C2'        23.9780   33.0420   22.5610 C.3      48   A48       0.0670
   1525 O2'        24.8430   32.3820   21.6680 O.3      48   A48      -0.6139
   1526 C1'        23.1730   34.1240   21.8600 C.3      48   A48       0.0394
   1527 N9         23.0640   35.3220   22.6650 N.ar     48   A48      -0.0251
   1528 C8         22.6090   35.4230   23.9640 C.ar     48   A48       0.2006
   1529 N7         22.7680   36.6070   24.4960 N.ar     48   A48      -0.6073
   1530 C5         23.3740   37.3220   23.4940 C.ar     48   A48       0.0515
   1531 C6         23.8030   38.6470   23.4290 C.ar     48   A48       0.7009
   1532 N6         23.6860   39.4930   24.4560 N.pl3    48   A48      -0.9019
   1533 N1         24.3600   39.0750   22.2600 N.ar     48   A48      -0.7615
   1534 C2         24.4820   38.1920   21.2320 C.ar     48   A48       0.5875
   1535 N3         24.1010   36.9090   21.1810 N.ar     48   A48      -0.6997
   1536 C4         23.5610   36.5370   22.3520 C.ar     48   A48       0.3053
   1537 H5'        20.1810   31.1077   23.0144 H        48   A48       0.0679
   1538 H5''       19.6137   32.4940   22.0581 H        48   A48       0.0679
   1539 H4'        21.8568   31.5642   21.3601 H        48   A48       0.1174
   1540 H3'        22.5977   32.5093   24.1235 H        48   A48       0.0615
   1541 H2'        24.5575   33.4846   23.3712 H        48   A48       0.0972
   1542 H1'        23.6481   34.3693   20.9102 H        48   A48       0.2007
   1543 H8         22.1607   34.5962   24.4949 H        48   A48       0.1553
   1544 H2         24.9485   38.5773   20.3374 H        48   A48       0.0473
   1545 H61        23.2736   39.1804   25.3234 H        48   A48       0.4115
   1546 H62        24.0099   40.4453   24.3652 H        48   A48       0.4115
   1547 HO2'       25.4543   33.0166   21.2871 H        48   A48       0.4186
   1548 P          23.7820   30.2240   24.6230 P.3      49   A49       1.1662
   1549 OP1        24.0920   28.7860   24.3970 O.co2    49   A49      -0.7760
   1550 OP2        22.8050   30.6290   25.6730 O.co2    49   A49      -0.7760
   1551 O5'        25.1370   31.0470   24.9030 O.3      49   A49      -0.4989
   1552 C5'        26.3490   30.7020   24.2470 C.3      49   A49       0.0558
   1553 C4'        27.5110   31.4630   24.8410 C.3      49   A49       0.1065
   1554 O4'        27.2170   32.8640   24.7880 O.3      49   A49      -0.3548
   1555 C3'        27.7690   31.1830   26.3010 C.3      49   A49       0.2022
   1556 O3'        28.6440   30.1050   26.4360 O.3      49   A49      -0.5246
   1557 C2'        28.3890   32.4800   26.7810 C.3      49   A49       0.0670
   1558 O2'        29.7540   32.6040   26.4330 O.3      49   A49      -0.6139
   1559 C1'        27.5840   33.4830   26.0030 C.3      49   A49       0.0394
   1560 N9         26.3830   33.9860   26.6760 N.ar     49   A49      -0.0251
   1561 C8         25.0830   33.7830   26.3000 C.ar     49   A49       0.2006
   1562 N7         24.2130   34.5060   26.9610 N.ar     49   A49      -0.6073
   1563 C5         24.9870   35.2410   27.8220 C.ar     49   A49       0.0515
   1564 C6         24.6610   36.2100   28.7860 C.ar     49   A49       0.7009
   1565 N6         23.4110   36.5680   29.0670 N.pl3    49   A49      -0.9019
   1566 N1         25.6670   36.7390   29.5080 N.ar     49   A49      -0.7615
   1567 C2         26.9280   36.3760   29.2150 C.ar     49   A49       0.5875
   1568 N3         27.3610   35.4710   28.3260 N.ar     49   A49      -0.6997
   1569 C4         26.3290   34.9200   27.6760 C.ar     49   A49       0.3053
   1570 H5'        26.2650   30.9462   23.1880 H        49   A49       0.0679
   1571 H5''       26.5257   29.6320   24.3567 H        49   A49       0.0679
   1572 H4'        28.4136   31.2579   24.2654 H        49   A49       0.1174
   1573 H3'        26.8339   30.9869   26.8257 H        49   A49       0.0615
   1574 H2'        28.2450   32.6095   27.8537 H        49   A49       0.0972
   1575 H1'        28.2273   34.3323   25.7728 H        49   A49       0.2007
   1576 H8         24.7986   33.0867   25.5250 H        49   A49       0.1553
   1577 H2         27.6997   36.8845   29.7739 H        49   A49       0.0473
   1578 H61        23.2068   37.3744   29.6398 H        49   A49       0.4115
   1579 H62        22.6471   36.0197   28.6983 H        49   A49       0.4115
   1580 HO2'       30.2705   31.9643   26.9287 H        49   A49       0.4186
   1581 P          28.4510   29.0650   27.6420 P.3      50   A50       1.1662
   1582 OP1        29.4230   27.9600   27.4190 O.co2    50   A50      -0.7760
   1583 OP2        26.9910   28.7630   27.7720 O.co2    50   A50      -0.7760
   1584 O5'        28.8930   29.9160   28.9280 O.3      50   A50      -0.4989
   1585 C5'        30.2540   30.2780   29.1040 C.3      50   A50       0.0558
   1586 C4'        30.4160   31.2270   30.2750 C.3      50   A50       0.1065
   1587 O4'        29.7780   32.4970   29.9740 O.3      50   A50      -0.3548
   1588 C3'        29.7460   30.7800   31.5510 C.3      50   A50       0.2022
   1589 O3'        30.5420   29.8600   32.2370 O.3      50   A50      -0.5246
   1590 C2'        29.6000   32.0990   32.2940 C.3      50   A50       0.0670
   1591 O2'        30.8230   32.5510   32.8670 O.3      50   A50      -0.6139
   1592 C1'        29.1700   33.0160   31.1500 C.3      50   A50       0.0394
   1593 N9         27.7110   33.0820   30.9540 N.ar     50   A50      -0.0251
   1594 C8         26.9460   32.3290   30.0930 C.ar     50   A50       0.2006
   1595 N7         25.6560   32.6100   30.1350 N.ar     50   A50      -0.6073
   1596 C5         25.5690   33.6150   31.0880 C.ar     50   A50       0.0515
   1597 C6         24.4750   34.3510   31.6060 C.ar     50   A50       0.7009
   1598 N6         23.2140   34.1920   31.1940 N.pl3    50   A50      -0.9019
   1599 N1         24.7290   35.2500   32.5800 N.ar     50   A50      -0.7615
   1600 C2         25.9810   35.3610   33.0450 C.ar     50   A50       0.5875
   1601 N3         27.0970   34.7690   32.6060 N.ar     50   A50      -0.6997
   1602 C4         26.8200   33.8850   31.6340 C.ar     50   A50       0.3053
   1603 H5'        30.8408   29.3786   29.2903 H        50   A50       0.0679
   1604 H5''       30.6168   30.7618   28.1971 H        50   A50       0.0679
   1605 H4'        31.4771   31.3913   30.4626 H        50   A50       0.1174
   1606 H3'        28.7664   30.3522   31.3376 H        50   A50       0.0615
   1607 H2'        28.8189   32.0324   33.0513 H        50   A50       0.0972
   1608 H1'        29.5510   34.0203   31.3352 H        50   A50       0.2007
   1609 H8         27.3630   31.5756   29.4412 H        50   A50       0.1553
   1610 H2         26.1061   36.0198   33.8916 H        50   A50       0.0473
   1611 H61        23.0000   33.5207   30.4703 H        50   A50       0.4115
   1612 H62        22.4748   34.7431   31.6062 H        50   A50       0.4115
   1613 HO2'       31.0777   31.9642   33.5828 H        50   A50       0.4186
   1614 P          29.8440   28.7130   33.1060 P.3      51   G51       1.1662
   1615 OP1        30.9290   27.8310   33.6010 O.co2    51   G51      -0.7760
   1616 OP2        28.7270   28.1330   32.3180 O.co2    51   G51      -0.7760
   1617 O5'        29.1900   29.5230   34.3390 O.3      51   G51      -0.4989
   1618 C5'        30.0270   30.0780   35.3600 C.3      51   G51       0.0558
   1619 C4'        29.2450   30.9740   36.3260 C.3      51   G51       0.1065
   1620 O4'        28.6490   32.0950   35.6140 O.3      51   G51      -0.3548
   1621 C3'        28.0550   30.3380   37.0310 C.3      51   G51       0.2022
   1622 O3'        28.4500   29.4950   38.1070 O.3      51   G51      -0.5246
   1623 C2'        27.2970   31.5770   37.4990 C.3      51   G51       0.0670
   1624 O2'        27.8670   32.1960   38.6420 O.3      51   G51      -0.6139
   1625 C1'        27.4260   32.4700   36.2660 C.3      51   G51       0.0191
   1626 N9         26.3020   32.2860   35.3360 N.ar     51   G51       0.0492
   1627 C8         26.2660   31.4790   34.2160 C.ar     51   G51       0.1374
   1628 N7         25.0930   31.4190   33.6490 N.ar     51   G51      -0.5709
   1629 C5         24.2870   32.2020   34.4590 C.ar     51   G51       0.1744
   1630 C6         22.9110   32.5260   34.3360 C.2      51   G51       0.4770
   1631 O6         22.1080   32.1660   33.4560 O.2      51   G51      -0.5597
   1632 N1         22.4780   33.3300   35.3900 N.am     51   G51      -0.4787
   1633 C2         23.2740   33.7680   36.4350 C.2      51   G51       0.7657
   1634 N2         22.6770   34.5250   37.3650 N.pl3    51   G51      -0.9672
   1635 N3         24.5660   33.4900   36.5490 N.2      51   G51      -0.6323
   1636 C4         25.0060   32.7090   35.5270 C.ar     51   G51       0.1222
   1637 H5'        30.8103   30.6708   34.8877 H        51   G51       0.0679
   1638 H5''       30.4869   29.2656   35.9226 H        51   G51       0.0679
   1639 H4'        29.9319   31.3618   37.0783 H        51   G51       0.1174
   1640 H3'        27.4521   29.7770   36.3170 H        51   G51       0.0615
   1641 H2'        26.2505   31.3337   37.6825 H        51   G51       0.0972
   1642 H1'        27.4799   33.5143   36.5737 H        51   G51       0.2006
   1643 H8         27.1291   30.9469   33.8441 H        51   G51       0.1640
   1644 H1         21.5090   33.6148   35.3912 H        51   G51       0.3424
   1645 H21        21.6945   34.7445   37.2831 H        51   G51       0.4364
   1646 H22        23.2093   34.8763   38.1481 H        51   G51       0.4364
   1647 HO2'       27.1705   32.4340   39.2584 H        51   G51       0.4186
   1648 P          27.5250   28.2460   38.5070 P.3      52   C52       1.1662
   1649 OP1        28.2740   27.4430   39.4940 O.co2    52   C52      -0.7760
   1650 OP2        27.0210   27.5970   37.2720 O.co2    52   C52      -0.7760
   1651 O5'        26.2830   28.9420   39.2270 O.3      52   C52      -0.4989
   1652 C5'        26.4500   29.6230   40.4740 C.3      52   C52       0.0558
   1653 C4'        25.1950   30.3990   40.8220 C.3      52   C52       0.1065
   1654 O4'        24.8440   31.2450   39.6940 O.3      52   C52      -0.3548
   1655 C3'        23.9440   29.5510   41.0470 C.3      52   C52       0.2022
   1656 O3'        23.8830   29.0480   42.3700 O.3      52   C52      -0.5246
   1657 C2'        22.8280   30.5500   40.7540 C.3      52   C52       0.0670
   1658 O2'        22.5450   31.4240   41.8400 O.3      52   C52      -0.6139
   1659 C1'        23.4260   31.3260   39.5720 C.3      52   C52       0.0066
   1660 N1         22.9950   30.7740   38.2220 N.am     52   C52      -0.0484
   1661 C2         21.6760   31.0120   37.7600 C.2      52   C52       0.7538
   1662 O2         20.9150   31.7380   38.4190 O.2      52   C52      -0.6252
   1663 N3         21.2800   30.4460   36.5870 N.2      52   C52      -0.7584
   1664 C4         22.1250   29.6700   35.8920 C.2      52   C52       0.8185
   1665 N4         21.6930   29.1700   34.7300 N.pl3    52   C52      -0.9530
   1666 C5         23.4630   29.4060   36.3420 C.2      52   C52      -0.5215
   1667 C6         23.8480   29.9640   37.5000 C.2      52   C52       0.0053
   1668 H5'        26.6502   28.8929   41.2582 H        52   C52       0.0679
   1669 H5''       27.2912   30.3121   40.3991 H        52   C52       0.0679
   1670 H4'        25.3797   31.0182   41.6998 H        52   C52       0.1174
   1671 H3'        23.9119   28.7302   40.3305 H        52   C52       0.0615
   1672 H2'        21.9235   30.0266   40.4441 H        52   C52       0.0972
   1673 H1'        23.1223   32.3705   39.6423 H        52   C52       0.2029
   1674 H5         24.1339   28.7821   35.7701 H        52   C52       0.1928
   1675 H6         24.8436   29.7758   37.8739 H        52   C52       0.1958
   1676 H41        20.7556   29.3699   34.4115 H        52   C52       0.4234
   1677 H42        22.3040   28.5923   34.1705 H        52   C52       0.4234
   1678 HO2'       22.1725   30.9207   42.5677 H        52   C52       0.4186
   1679 P          23.3990   27.5370   42.6330 P.3      53   U53       1.1662
   1680 OP1        23.6080   27.2680   44.0730 O.co2    53   U53      -0.7760
   1681 OP2        24.0410   26.6470   41.6300 O.co2    53   U53      -0.7760
   1682 O5'        21.8120   27.5740   42.3210 O.3      53   U53      -0.4989
   1683 C5'        20.9220   28.3610   43.1250 C.3      53   U53       0.0558
   1684 H5'1       19.9030   28.2511   42.7539 H        53   U53       0.0679
   1685 H5'2       21.2164   29.4092   43.0726 H        53   U53       0.0679
   1686 H5'3       20.9705   28.0212   44.1596 H        53   U53       0.0000
   1687 O5'        11.3990   34.9240   31.9100 O.3      54   G57      -0.6223
   1688 C5'        12.4690   34.2680   32.5840 C.3      54   G57       0.0558
   1689 C4'        12.3770   34.4660   34.0960 C.3      54   G57       0.1065
   1690 O4'        12.6280   33.2000   34.7520 O.3      54   G57      -0.3548
   1691 C3'        13.3970   35.4470   34.6760 C.3      54   G57       0.2022
   1692 O3'        12.7720   36.6660   35.0090 O.3      54   G57      -0.5246
   1693 C2'        13.9490   34.7410   35.9180 C.3      54   G57       0.0670
   1694 O2'        13.2250   35.0380   37.0940 O.3      54   G57      -0.6139
   1695 C1'        13.7850   33.2840   35.5580 C.3      54   G57       0.0191
   1696 N9         14.9440   32.6980   34.8520 N.ar     54   G57       0.0492
   1697 C8         15.0670   32.4470   33.5050 C.ar     54   G57       0.1374
   1698 N7         16.2090   31.9310   33.1680 N.ar     54   G57      -0.5709
   1699 C5         16.8910   31.8100   34.3620 C.ar     54   G57       0.1744
   1700 C6         18.1900   31.2990   34.6220 C.2      54   G57       0.4770
   1701 O6         18.9990   30.8160   33.8120 O.2      54   G57      -0.5597
   1702 N1         18.5340   31.4170   35.9760 N.am     54   G57      -0.4787
   1703 C2         17.7090   31.9480   36.9560 C.2      54   G57       0.7657
   1704 N2         18.1980   31.9700   38.2050 N.pl3    54   G57      -0.9672
   1705 N3         16.4860   32.4220   36.7210 N.2      54   G57      -0.6323
   1706 C4         16.1360   32.3030   35.4100 C.ar     54   G57       0.1222
   1707 H5'        12.4273   33.2016   32.3625 H        54   G57       0.0679
   1708 H5''       13.4170   34.6707   32.2274 H        54   G57       0.0679
   1709 H4'        11.3728   34.8053   34.3499 H        54   G57       0.1174
   1710 H3'        14.1983   35.6215   33.9579 H        54   G57       0.0615
   1711 H2'        15.0037   34.9811   36.0523 H        54   G57       0.0972
   1712 H1'        13.6128   32.7173   36.4731 H        54   G57       0.2006
   1713 H8         14.2839   32.6601   32.7924 H        54   G57       0.1640
   1714 H1         19.4479   31.0921   36.2577 H        54   G57       0.3424
   1715 H21        19.1238   31.6118   38.3913 H        54   G57       0.4364
   1716 H22        17.6404   32.3448   38.9591 H        54   G57       0.4364
   1717 HO2'       13.8345   35.2994   37.7881 H        54   G57       0.4186
   1718 HO5'       10.8835   34.4626   31.2444 H        54   G57       0.4295
   1719 P          13.5370   38.0480   34.7550 P.3      55   C58       1.1662
   1720 OP1        12.6180   39.1410   35.1690 O.co2    55   C58      -0.7760
   1721 OP2        14.0810   38.0160   33.3710 O.co2    55   C58      -0.7760
   1722 O5'        14.7790   37.9850   35.7720 O.3      55   C58      -0.4989
   1723 C5'        14.5860   38.2890   37.1510 C.3      55   C58       0.0558
   1724 C4'        15.8030   37.9210   37.9780 C.3      55   C58       0.1065
   1725 O4'        16.1260   36.5250   37.7920 O.3      55   C58      -0.3548
   1726 C3'        17.0860   38.6260   37.6000 C.3      55   C58       0.2022
   1727 O3'        17.1190   39.9490   38.1210 O.3      55   C58      -0.5246
   1728 C2'        18.1220   37.7230   38.2560 C.3      55   C58       0.0670
   1729 O2'        18.2810   37.9590   39.6450 O.3      55   C58      -0.6139
   1730 C1'        17.5200   36.3390   38.0140 C.3      55   C58       0.0066
   1731 N1         18.1360   35.6400   36.8310 N.am     55   C58      -0.0484
   1732 C2         19.4560   35.1370   36.9240 C.2      55   C58       0.7538
   1733 O2         20.0790   35.2320   37.9930 O.2      55   C58      -0.6252
   1734 N3         20.0140   34.5600   35.8280 N.2      55   C58      -0.7584
   1735 C4         19.3260   34.4710   34.6850 C.2      55   C58       0.8185
   1736 N4         19.9230   33.8800   33.6480 N.pl3    55   C58      -0.9530
   1737 C5         18.0090   35.0160   34.5500 C.2      55   C58      -0.5215
   1738 C6         17.4520   35.5730   35.6380 C.2      55   C58       0.0053
   1739 H5'        14.3976   39.3576   37.2548 H        55   C58       0.0679
   1740 H5''       13.7224   37.7365   37.5210 H        55   C58       0.0679
   1741 H4'        15.5900   38.1031   39.0313 H        55   C58       0.1174
   1742 H3'        17.2148   38.6358   36.5177 H        55   C58       0.0615
   1743 H2'        19.0804   37.8133   37.7448 H        55   C58       0.0972
   1744 H1'        17.6617   35.7268   38.9046 H        55   C58       0.2029
   1745 H5         17.4825   34.9806   33.6077 H        55   C58       0.1928
   1746 H6         16.4514   35.9748   35.5760 H        55   C58       0.1958
   1747 H41        20.8570   33.5086   33.7474 H        55   C58       0.4234
   1748 H42        19.4408   33.8041   32.7638 H        55   C58       0.4234
   1749 HO2'       19.2162   37.9997   39.8582 H        55   C58       0.4186
   1750 P          17.9060   41.1080   37.3300 P.3      56   U59       1.1662
   1751 OP1        17.6630   42.3870   38.0470 O.co2    56   U59      -0.7760
   1752 OP2        17.5560   41.0000   35.8890 O.co2    56   U59      -0.7760
   1753 O5'        19.4540   40.6960   37.5040 O.3      56   U59      -0.4989
   1754 C5'        20.0910   40.8350   38.7660 C.3      56   U59       0.0558
   1755 C4'        21.4560   40.1670   38.7760 C.3      56   U59       0.1065
   1756 O4'        21.3480   38.7820   38.3780 O.3      56   U59      -0.3548
   1757 C3'        22.4550   40.7190   37.7920 C.3      56   U59       0.2022
   1758 O3'        22.9870   41.9300   38.2440 O.3      56   U59      -0.5246
   1759 C2'        23.4880   39.6030   37.7470 C.3      56   U59       0.0670
   1760 O2'        24.3840   39.6070   38.8490 O.3      56   U59      -0.6139
   1761 C1'        22.5880   38.3710   37.7860 C.3      56   U59       0.0674
   1762 N1         22.3380   37.7690   36.4020 N.am     56   U59       0.0418
   1763 C2         23.3640   37.0580   35.7680 C.2      56   U59       0.4687
   1764 O2         24.4520   36.8300   36.2850 O.2      56   U59      -0.5477
   1765 N3         23.0390   36.5520   34.5270 N.am     56   U59      -0.3549
   1766 C4         21.8360   36.6980   33.8510 C.2      56   U59       0.5952
   1767 O4         21.7080   36.2060   32.7320 O.2      56   U59      -0.5761
   1768 C5         20.8390   37.5010   34.5380 C.2      56   U59      -0.3635
   1769 C6         21.1150   37.9820   35.7640 C.2      56   U59      -0.1126
   1770 H5'        20.2139   41.8955   38.9859 H        56   U59       0.0679
   1771 H5''       19.4652   40.3808   39.5342 H        56   U59       0.0679
   1772 H4'        21.8746   40.2203   39.7810 H        56   U59       0.1174
   1773 H3'        21.9927   40.8487   36.8134 H        56   U59       0.0615
   1774 H2'        24.0418   39.6375   36.8088 H        56   U59       0.0972
   1775 H1'        23.0500   37.6157   38.4218 H        56   U59       0.1824
   1776 H3         23.7555   36.0161   34.0585 H        56   U59       0.3154
   1777 H5         19.8880   37.7093   34.0704 H        56   U59       0.1811
   1778 H6         20.3580   38.5574   36.2761 H        56   U59       0.2188
   1779 HO2'       25.2827   39.4918   38.5317 H        56   U59       0.4186
   1780 P          23.2830   43.0910   37.1880 P.3      57   U60       1.1662
   1781 OP1        23.6040   44.3260   37.9490 O.co2    57   U60      -0.7760
   1782 OP2        22.1740   43.1090   36.1930 O.co2    57   U60      -0.7760
   1783 O5'        24.6100   42.5480   36.4540 O.3      57   U60      -0.4989
   1784 C5'        25.8410   42.4300   37.1730 C.3      57   U60       0.0558
   1785 C4'        26.8050   41.4740   36.4760 C.3      57   U60       0.1065
   1786 O4'        26.1290   40.2350   36.1390 O.3      57   U60      -0.3548
   1787 C3'        27.3630   41.9560   35.1500 C.3      57   U60       0.2022
   1788 O3'        28.4730   42.8550   35.3520 O.3      57   U60      -0.5246
   1789 C2'        27.8090   40.6380   34.5160 C.3      57   U60       0.0670
   1790 O2'        29.0690   40.1910   34.9860 O.3      57   U60      -0.6139
   1791 C1'        26.7070   39.6850   34.9530 C.3      57   U60       0.0674
   1792 N1         25.6230   39.4580   33.8880 N.am     57   U60       0.0418
   1793 C2         25.9190   38.6910   32.7510 C.2      57   U60       0.4687
   1794 O2         27.0270   38.2240   32.5150 O.2      57   U60      -0.5477
   1795 N3         24.8530   38.4930   31.8900 N.am     57   U60      -0.3549
   1796 C4         23.5580   38.9880   32.0300 C.2      57   U60       0.5952
   1797 O4         22.7140   38.7340   31.1740 O.2      57   U60      -0.5761
   1798 C5         23.3290   39.7730   33.2280 C.2      57   U60      -0.3635
   1799 C6         24.3410   39.9630   34.0970 C.2      57   U60      -0.1126
   1800 H5'        26.3060   43.4133   37.2431 H        57   U60       0.0679
   1801 H5''       25.6343   42.0600   38.1772 H        57   U60       0.0679
   1802 H4'        27.6333   41.2534   37.1493 H        57   U60       0.1174
   1803 H3'        26.5848   42.4298   34.5516 H        57   U60       0.0615
   1804 H2'        27.8216   40.7272   33.4297 H        57   U60       0.0972
   1805 H1'        27.1574   38.7237   35.2001 H        57   U60       0.1824
   1806 H3         25.0335   37.9288   31.0720 H        57   U60       0.3154
   1807 H5         22.3566   40.2011   33.4216 H        57   U60       0.1811
   1808 H6         24.1503   40.5317   34.9951 H        57   U60       0.2188
   1809 HO2'       29.7523   40.8026   34.7020 H        57   U60       0.4186
   1810 P          28.8230   43.9930   34.2560 P.3      58   U61       1.1662
   1811 OP1        30.2030   44.4600   34.5130 O.co2    58   U61      -0.7760
   1812 OP2        27.7100   44.9760   34.2080 O.co2    58   U61      -0.7760
   1813 O5'        28.7910   43.1750   32.8840 O.3      58   U61      -0.4989
   1814 C5'        29.9170   42.3730   32.4300 C.3      58   U61       0.0558
   1815 C4'        29.8530   42.2670   30.9210 C.3      58   U61       0.1065
   1816 O4'        28.7070   41.4270   30.5500 O.3      58   U61      -0.3548
   1817 C3'        29.6120   43.6300   30.2740 C.3      58   U61       0.2022
   1818 O3'        30.6120   43.9620   29.3110 O.3      58   U61      -0.5246
   1819 C2'        28.1650   43.5640   29.7510 C.3      58   U61       0.0670
   1820 O2'        27.9100   44.2710   28.5520 O.3      58   U61      -0.6139
   1821 C1'        27.9410   42.0760   29.5590 C.3      58   U61       0.0674
   1822 N1         26.4830   41.7000   29.6790 N.am     58   U61       0.0418
   1823 C2         25.9650   40.7190   28.8400 C.2      58   U61       0.4687
   1824 O2         26.6620   40.0050   28.1350 O.2      58   U61      -0.5477
   1825 N3         24.5860   40.5700   28.9030 N.am     58   U61      -0.3549
   1826 C4         23.6930   41.3310   29.6650 C.2      58   U61       0.5952
   1827 O4         22.4920   41.0810   29.6340 O.2      58   U61      -0.5761
   1828 C5         24.3060   42.3560   30.4740 C.2      58   U61      -0.3635
   1829 C6         25.6390   42.5100   30.4400 C.2      58   U61      -0.1126
   1830 H5'        29.8612   41.3778   32.8712 H        58   U61       0.0679
   1831 H5''       30.8506   42.8524   32.7243 H        58   U61       0.0679
   1832 H4'        30.7753   41.8301   30.5382 H        58   U61       0.1174
   1833 H3'        29.6465   44.3825   31.0618 H        58   U61       0.0615
   1834 H2'        27.4907   43.9268   30.5268 H        58   U61       0.0972
   1835 H1'        28.3065   41.7829   28.5748 H        58   U61       0.1824
   1836 H3         24.1851   39.8343   28.3390 H        58   U61       0.3154
   1837 H5         23.6989   42.9927   31.1004 H        58   U61       0.1811
   1838 H6         26.0800   43.2995   31.0305 H        58   U61       0.2188
   1839 HO2'       28.3072   45.1434   28.6037 H        58   U61       0.4186
   1840 P          30.9960   45.5130   29.1020 P.3      59   G62       1.1662
   1841 OP1        32.2680   45.5860   28.3430 O.co2    59   G62      -0.7760
   1842 OP2        30.8760   46.2200   30.4030 O.co2    59   G62      -0.7760
   1843 O5'        29.7830   45.9860   28.1800 O.3      59   G62      -0.4989
   1844 C5'        29.5670   47.3140   27.8890 C.3      59   G62       0.0558
   1845 C4'        29.8590   47.5520   26.4380 C.3      59   G62       0.1065
   1846 O4'        29.4030   46.4480   25.6410 O.3      59   G62      -0.3548
   1847 C3'        29.1570   48.7150   25.8490 C.3      59   G62       0.2022
   1848 O3'        29.8270   49.8750   26.2360 O.3      59   G62      -0.5246
   1849 C2'        29.3510   48.4220   24.3770 C.3      59   G62       0.0670
   1850 O2'        30.6550   48.7550   23.9500 O.3      59   G62      -0.6139
   1851 C1'        29.1760   46.9070   24.3350 C.3      59   G62       0.0191
   1852 N9         27.8530   46.4640   23.9050 N.ar     59   G62       0.0492
   1853 C8         26.7390   46.3090   24.6900 C.ar     59   G62       0.1374
   1854 N7         25.7160   45.8180   24.0530 N.ar     59   G62      -0.5709
   1855 C5         26.1780   45.6280   22.7620 C.ar     59   G62       0.1744
   1856 C6         25.5160   45.1030   21.6200 C.2      59   G62       0.4770
   1857 O6         24.3380   44.7240   21.5270 O.2      59   G62      -0.5597
   1858 N1         26.3590   45.0480   20.5040 N.am     59   G62      -0.4787
   1859 C2         27.6750   45.4440   20.5010 C.2      59   G62       0.7657
   1860 N2         28.3340   45.3220   19.3410 N.pl3    59   G62      -0.9672
   1861 N3         28.2960   45.9600   21.5560 N.2      59   G62      -0.6323
   1862 C4         27.4920   46.0180   22.6530 C.ar     59   G62       0.1222
   1863 H5'        28.5283   47.5692   28.0988 H        59   G62       0.0679
   1864 H5''       30.2248   47.9326   28.4995 H        59   G62       0.0679
   1865 H4'        30.9336   47.6740   26.3025 H        59   G62       0.1174
   1866 H3'        28.1030   48.7397   26.1257 H        59   G62       0.0615
   1867 H2'        28.5965   48.9240   23.7713 H        59   G62       0.0972
   1868 H1'        29.9279   46.4798   23.6715 H        59   G62       0.2006
   1869 H8         26.7133   46.5698   25.7377 H        59   G62       0.1640
   1870 H1         25.9733   44.6926   19.6409 H        59   G62       0.3424
   1871 H21        27.8648   44.9426   18.5311 H        59   G62       0.4364
   1872 H22        29.3001   45.6095   19.2764 H        59   G62       0.4364
   1873 HO2'       30.8191   48.3657   23.0880 H        59   G62       0.4186
   1874 P          29.0320   51.0760   26.9260 P.3      60   A63       1.1662
   1875 OP1        29.8800   51.5740   28.0410 O.co2    60   A63      -0.7760
   1876 OP2        27.6200   50.6380   27.1880 O.co2    60   A63      -0.7760
   1877 O5'        28.9950   52.1760   25.7610 O.3      60   A63      -0.4989
   1878 C5'        30.1910   52.5270   25.0760 C.3      60   A63       0.0558
   1879 C4'        29.9440   52.6460   23.5850 C.3      60   A63       0.1065
   1880 O4'        29.4800   51.3840   23.0810 O.3      60   A63      -0.3548
   1881 C3'        28.8580   53.6250   23.1850 C.3      60   A63       0.2022
   1882 O3'        29.3940   54.9310   23.0960 O.3      60   A63      -0.5246
   1883 C2'        28.4440   53.1040   21.8190 C.3      60   A63       0.0670
   1884 O2'        29.2740   53.5940   20.8020 O.3      60   A63      -0.6139
   1885 C1'        28.6460   51.6020   21.9640 C.3      60   A63       0.0394
   1886 N9         27.4240   50.8410   22.1450 N.ar     60   A63      -0.0251
   1887 C8         26.6370   50.8050   23.2490 C.ar     60   A63       0.2006
   1888 N7         25.6150   49.9890   23.1470 N.ar     60   A63      -0.6073
   1889 C5         25.7580   49.4340   21.8980 C.ar     60   A63       0.0515
   1890 C6         25.0080   48.4690   21.1920 C.ar     60   A63       0.7009
   1891 N6         23.9230   47.8700   21.6890 N.pl3    60   A63      -0.9019
   1892 N1         25.4380   48.1210   19.9560 N.ar     60   A63      -0.7615
   1893 C2         26.5300   48.7160   19.4570 C.ar     60   A63       0.5875
   1894 N3         27.3330   49.6080   20.0360 N.ar     60   A63      -0.6997
   1895 C4         26.8840   49.9320   21.2700 C.ar     60   A63       0.3053
   1896 H5'        30.9427   51.7577   25.2530 H        60   A63       0.0679
   1897 H5''       30.5564   53.4807   25.4568 H        60   A63       0.0679
   1898 H4'        30.8746   52.9146   23.0850 H        60   A63       0.1174
   1899 H3'        28.0237   53.5915   23.8857 H        60   A63       0.0615
   1900 H2'        27.3992   53.3376   21.6143 H        60   A63       0.0972
   1901 H1'        29.1554   51.2332   21.0737 H        60   A63       0.2007
   1902 H8         26.8339   51.3947   24.1321 H        60   A63       0.1553
   1903 H2         26.7954   48.4344   18.4487 H        60   A63       0.0473
   1904 HO2'       29.1265   53.0910   19.9978 H        60   A63       0.4186
   1905 H61        23.5932   48.1086   22.6133 H        60   A63       0.4115
   1906 H62        23.4321   47.1784   21.1406 H        60   A63       0.4115
   1907 P          28.7360   56.1400   23.9350 P.3      61   U64       1.1662
   1908 OP1        29.5480   57.3580   23.6650 O.co2    61   U64      -0.7760
   1909 OP2        28.5240   55.6810   25.3390 O.co2    61   U64      -0.7760
   1910 O5'        27.2790   56.3170   23.2700 O.3      61   U64      -0.4989
   1911 C5'        27.1550   56.5470   21.8800 C.3      61   U64       0.0558
   1912 C4'        27.1730   58.0260   21.5830 C.3      61   U64       0.1065
   1913 O4'        27.4850   58.2510   20.1770 O.3      61   U64      -0.3548
   1914 C3'        25.8520   58.7320   21.8380 C.3      61   U64       0.2022
   1915 O3'        26.1050   60.0500   22.3300 O.3      61   U64      -0.5246
   1916 C2'        25.2230   58.7540   20.4500 C.3      61   U64       0.0670
   1917 O2'        24.2900   59.7950   20.2870 O.3      61   U64      -0.6139
   1918 C1'        26.4550   59.0140   19.5960 C.3      61   U64       0.0674
   1919 N1         26.3050   58.6580   18.1480 N.am     61   U64       0.0418
   1920 C2         26.9970   59.3930   17.2040 C.2      61   U64       0.4687
   1921 O2         27.7890   60.2750   17.4890 O.2      61   U64      -0.5477
   1922 N3         26.7340   59.0510   15.8990 N.am     61   U64      -0.3549
   1923 C4         25.8600   58.0830   15.4520 C.2      61   U64       0.5952
   1924 O4         25.7560   57.8770   14.2590 O.2      61   U64      -0.5761
   1925 C5         25.1530   57.3740   16.4870 C.2      61   U64      -0.3635
   1926 C6         25.3830   57.6910   17.7680 C.2      61   U64      -0.1126
   1927 H5'        26.2142   56.1227   21.5293 H        61   U64       0.0679
   1928 H5''       27.9831   56.0653   21.3601 H        61   U64       0.0679
   1929 H4'        27.9447   58.4962   22.1925 H        61   U64       0.1174
   1930 H3'        25.2357   58.1663   22.5368 H        61   U64       0.0615
   1931 H2'        24.7772   57.7891   20.2083 H        61   U64       0.0972
   1932 H1'        26.7164   60.0695   19.6714 H        61   U64       0.1824
   1933 H3         27.2362   59.5654   15.1896 H        61   U64       0.3154
   1934 H5         24.4468   56.5971   16.2338 H        61   U64       0.1811
   1935 H6         24.8288   57.1734   18.5370 H        61   U64       0.2188
   1936 HO2'       23.5270   59.6319   20.8463 H        61   U64       0.4186
   1937 P          25.3330   60.5880   23.6160 P.3      62   U65       1.1662
   1938 OP1        26.1810   60.2850   24.7910 O.co2    62   U65      -0.7760
   1939 OP2        23.9200   60.1030   23.5760 O.co2    62   U65      -0.7760
   1940 O5'        25.3300   62.1700   23.3620 O.3      62   U65      -0.4989
   1941 C5'        24.7630   62.7290   22.1510 C.3      62   U65       0.0558
   1942 C4'        25.8060   63.5450   21.4110 C.3      62   U65       0.1065
   1943 O4'        26.4810   62.6940   20.4480 O.3      62   U65      -0.3548
   1944 C3'        25.2740   64.6930   20.5750 C.3      62   U65       0.2022
   1945 O3'        25.0450   65.8280   21.3690 O.3      62   U65      -0.5246
   1946 C2'        26.4310   64.9070   19.6060 C.3      62   U65       0.0670
   1947 O2'        27.5150   65.5980   20.2020 O.3      62   U65      -0.6139
   1948 C1'        26.8340   63.4620   19.3000 C.3      62   U65       0.0674
   1949 N1         26.1620   62.8650   18.0470 N.am     62   U65       0.0418
   1950 C2         26.6880   63.1420   16.7900 C.2      62   U65       0.4687
   1951 O2         27.6690   63.8500   16.6090 O.2      62   U65      -0.5477
   1952 N3         26.0170   62.5470   15.7380 N.am     62   U65      -0.3549
   1953 C4         24.8880   61.7350   15.8060 C.2      62   U65       0.5952
   1954 O4         24.4040   61.2690   14.7750 O.2      62   U65      -0.5761
   1955 C5         24.3800   61.5190   17.1390 C.2      62   U65      -0.3635
   1956 C6         25.0180   62.0800   18.1820 C.2      62   U65      -0.1126
   1957 H5'        24.4175   61.9192   21.5084 H        62   U65       0.0679
   1958 H5''       23.9199   63.3697   22.4094 H        62   U65       0.0679
   1959 H4'        26.5351   63.9282   22.1249 H        62   U65       0.1174
   1960 H3'        24.3688   64.4007   20.0427 H        62   U65       0.0615
   1961 H2'        26.0937   65.4165   18.7034 H        62   U65       0.0972
   1962 H1'        27.9155   63.4204   19.1703 H        62   U65       0.1824
   1963 H3         26.3880   62.7211   14.8149 H        62   U65       0.3154
   1964 H5         23.4990   60.9148   17.2974 H        62   U65       0.1811
   1965 H6         24.6241   61.9139   19.1738 H        62   U65       0.2188
   1966 HO2'       27.2538   66.5024   20.3904 H        62   U65       0.4186
   1967 P          23.7820   66.7860   21.0830 P.3      63   U66       1.1662
   1968 OP1        23.6600   67.6980   22.2420 O.co2    63   U66      -0.7760
   1969 OP2        22.6200   65.9550   20.6990 O.co2    63   U66      -0.7760
   1970 O5'        24.2420   67.6330   19.7950 O.3      63   U66      -0.4989
   1971 C5'        25.3950   68.5090   19.8870 C.3      63   U66       0.0558
   1972 C4'        25.8600   69.0190   18.5200 C.3      63   U66       0.1065
   1973 O4'        26.4680   67.9340   17.7600 O.3      63   U66      -0.3548
   1974 C3'        24.7710   69.5520   17.5980 C.3      63   U66       0.2022
   1975 O3'        24.4180   70.8720   17.9050 O.3      63   U66      -0.5246
   1976 C2'        25.4400   69.4440   16.2380 C.3      63   U66       0.0670
   1977 O2'        26.3580   70.4970   15.9700 O.3      63   U66      -0.6139
   1978 C1'        26.1550   68.0950   16.3690 C.3      63   U66       0.0674
   1979 N1         25.2870   66.9060   15.8560 N.am     63   U66       0.0418
   1980 C2         25.2150   66.6550   14.4840 C.2      63   U66       0.4687
   1981 O2         25.8400   67.2910   13.6470 O.2      63   U66      -0.5477
   1982 N3         24.3810   65.6180   14.1280 N.am     63   U66      -0.3549
   1983 C4         23.6120   64.8310   14.9650 C.2      63   U66       0.5952
   1984 O4         22.9090   63.9410   14.4920 O.2      63   U66      -0.5761
   1985 C5         23.7110   65.1620   16.3640 C.2      63   U66      -0.3635
   1986 C6         24.5130   66.1690   16.7480 C.2      63   U66      -0.1126
   1987 H5'        26.2140   67.9597   20.3512 H        63   U66       0.0679
   1988 H5''       25.1411   69.3628   20.5152 H        63   U66       0.0679
   1989 H4'        26.6043   69.8007   18.6720 H        63   U66       0.1174
   1990 H3'        23.8930   68.9073   17.6389 H        63   U66       0.0615
   1991 H2'        24.6863   69.3943   15.4521 H        63   U66       0.0972
   1992 H1'        27.0830   68.1287   15.7983 H        63   U66       0.1824
   1993 H3         24.3248   65.4084   13.1416 H        63   U66       0.3154
   1994 H5         23.1457   64.6057   17.0970 H        63   U66       0.1811
   1995 H6         24.5594   66.4184   17.7978 H        63   U66       0.2188
   1996 HO2'       26.0031   71.0641   15.2815 H        63   U66       0.4186
   1997 P          22.8960   71.3500   17.7150 P.3      64   G67       1.1662
   1998 OP1        22.7640   72.6660   18.3860 O.co2    64   G67      -0.7760
   1999 OP2        21.9950   70.2390   18.1030 O.co2    64   G67      -0.7760
   2000 O5'        22.7590   71.5510   16.1360 O.3      64   G67      -0.4989
   2001 C5'        23.5420   72.5330   15.4660 C.3      64   G67       0.0558
   2002 C4'        23.5110   72.3260   13.9610 C.3      64   G67       0.1065
   2003 O4'        24.1310   71.0530   13.6250 O.3      64   G67      -0.3548
   2004 C3'        22.1270   72.2180   13.3560 C.3      64   G67       0.2022
   2005 O3'        21.5310   73.4800   13.1730 O.3      64   G67      -0.5246
   2006 C2'        22.4240   71.5110   12.0420 C.3      64   G67       0.0670
   2007 O2'        22.9450   72.3690   11.0380 O.3      64   G67      -0.6139
   2008 C1'        23.4650   70.4870   12.4950 C.3      64   G67       0.0191
   2009 N9         22.8550   69.1870   12.8500 N.ar     64   G67       0.0492
   2010 C8         22.5630   68.6980   14.1080 C.ar     64   G67       0.1374
   2011 N7         21.9350   67.5470   14.0940 N.ar     64   G67      -0.5709
   2012 C5         21.7380   67.2900   12.7450 C.ar     64   G67       0.1744
   2013 C6         21.1110   66.1930   12.0980 C.2      64   G67       0.4770
   2014 O6         20.5650   65.2020   12.6100 O.2      64   G67      -0.5597
   2015 N1         21.1440   66.3300   10.7100 N.am     64   G67      -0.4787
   2016 C2         21.7100   67.3870   10.0380 C.2      64   G67       0.7657
   2017 N2         21.6600   67.3500    8.7120 N.pl3    64   G67      -0.9672
   2018 N3         22.2630   68.4210   10.6250 N.2      64   G67      -0.6323
   2019 C4         22.2750   68.2990   11.9720 C.ar     64   G67       0.1222
   2020 H5'        23.1461   73.5219   15.6972 H        64   G67       0.0679
   2021 H5''       24.5725   72.4690   15.8153 H        64   G67       0.0679
   2022 H4'        24.0567   73.1339   13.4735 H        64   G67       0.1174
   2023 H3'        21.4923   71.5917   13.9829 H        64   G67       0.0615
   2024 H2'        21.5309   71.0037   11.6773 H        64   G67       0.0972
   2025 H1'        24.1882   70.3349   11.6938 H        64   G67       0.2006
   2026 H8         22.8272   69.2153   15.0185 H        64   G67       0.1640
   2027 H1         20.7205   65.5980   10.1579 H        64   G67       0.3424
   2028 H21        21.2290   66.5652    8.2446 H        64   G67       0.4364
   2029 H22        22.0529   68.1066    8.1705 H        64   G67       0.4364
   2030 HO2'       22.4712   72.2240   10.2157 H        64   G67       0.4186
   2031 P          19.9300   73.6080   13.2490 P.3      65   G68       1.1662
   2032 OP1        19.5920   75.0510   13.1980 O.co2    65   G68      -0.7760
   2033 OP2        19.4330   72.7720   14.3790 O.co2    65   G68      -0.7760
   2034 O5'        19.4490   72.9230   11.8830 O.3      65   G68      -0.4989
   2035 C5'        19.8630   73.4650   10.6240 C.3      65   G68       0.0558
   2036 C4'        19.3800   72.6010    9.4850 C.3      65   G68       0.1065
   2037 O4'        20.0170   71.3010    9.5500 O.3      65   G68      -0.3548
   2038 C3'        17.9050   72.2930    9.5300 C.3      65   G68       0.2022
   2039 O3'        17.1560   73.3670    8.9990 O.3      65   G68      -0.5246
   2040 C2'        17.8250   71.0270    8.6840 C.3      65   G68       0.0670
   2041 O2'        17.8730   71.2870    7.2930 O.3      65   G68      -0.6139
   2042 C1'        19.0920   70.2950    9.1310 C.3      65   G68       0.0191
   2043 N9         18.8620   69.3540   10.2410 N.ar     65   G68       0.0492
   2044 C8         19.1250   69.5720   11.5730 C.ar     65   G68       0.1374
   2045 N7         18.7660   68.5860   12.3470 N.ar     65   G68      -0.5709
   2046 C5         18.2160   67.6550   11.4850 C.ar     65   G68       0.1744
   2047 C6         17.6980   66.3600   11.7510 C.2      65   G68       0.4770
   2048 O6         17.6170   65.7720   12.8410 O.2      65   G68      -0.5597
   2049 N1         17.2380   65.7380   10.5920 N.am     65   G68      -0.4787
   2050 C2         17.2940   66.2860    9.3330 C.2      65   G68       0.7657
   2051 N2         16.8170   65.5280    8.3430 N.pl3    65   G68      -0.9672
   2052 N3         17.8030   67.4860    9.0620 N.2      65   G68      -0.6323
   2053 C4         18.2550   68.1110   10.1810 C.ar     65   G68       0.1222
   2054 H5'        20.9515   73.5159   10.5973 H        65   G68       0.0679
   2055 H5''       19.4533   74.4689   10.5126 H        65   G68       0.0679
   2056 H4'        19.6236   73.0791    8.5362 H        65   G68       0.1174
   2057 H3'        17.5934   72.0842   10.5534 H        65   G68       0.0615
   2058 H2'        16.9362   70.4493    8.9378 H        65   G68       0.0972
   2059 H1'        19.5112   69.7534    8.2830 H        65   G68       0.2006
   2060 H8         19.5860   70.4757   11.9435 H        65   G68       0.1640
   2061 H1         16.8338   64.8170   10.6840 H        65   G68       0.3424
   2062 H21        16.4374   64.6141    8.5447 H        65   G68       0.4364
   2063 H22        16.8358   65.8685    7.3923 H        65   G68       0.4364
   2064 HO2'       17.1565   70.8217    6.8551 H        65   G68       0.4186
   2065 P          15.7560   73.7650    9.6750 P.3      66   U69       1.1662
   2066 OP1        15.3910   75.1280    9.2070 O.co2    66   U69      -0.7760
   2067 OP2        15.8350   73.4800   11.1350 O.co2    66   U69      -0.7760
   2068 O5'        14.7400   72.7110    9.0250 O.3      66   U69      -0.4989
   2069 C5'        14.6570   72.5750    7.6070 C.3      66   U69       0.0558
   2070 C4'        13.9830   71.2730    7.2270 C.3      66   U69       0.1065
   2071 O4'        14.7740   70.1470    7.6770 O.3      66   U69      -0.3548
   2072 C3'        12.6540   71.0300    7.8860 C.3      66   U69       0.2022
   2073 O3'        11.6490   71.7960    7.2840 O.3      66   U69      -0.5246
   2074 C2'        12.4750   69.5410    7.6500 C.3      66   U69       0.0670
   2075 O2'        12.0190   69.2340    6.3450 O.3      66   U69      -0.6139
   2076 C1'        13.9060   69.0290    7.8540 C.3      66   U69       0.0674
   2077 N1         14.1240   68.4240    9.2260 N.am     66   U69       0.0418
   2078 C2         13.6350   67.1380    9.5000 C.2      66   U69       0.4687
   2079 O2         13.0890   66.4290    8.6720 O.2      66   U69      -0.5477
   2080 N3         13.8470   66.7020   10.7910 N.am     66   U69      -0.3549
   2081 C4         14.4750   67.3940   11.8200 C.2      66   U69       0.5952
   2082 O4         14.6200   66.8550   12.9140 O.2      66   U69      -0.5761
   2083 C5         14.9360   68.7240   11.4710 C.2      66   U69      -0.3635
   2084 C6         14.7460   69.1800   10.2170 C.2      66   U69      -0.1126
   2085 H5'        15.6630   72.5915    7.1876 H        66   U69       0.0679
   2086 H5''       14.0843   73.4081    7.1993 H        66   U69       0.0679
   2087 H4'        13.8663   71.2262    6.1443 H        66   U69       0.1174
   2088 H3'        12.7111   71.2442    8.9532 H        66   U69       0.0615
   2089 H2'        11.8068   69.1139    8.3978 H        66   U69       0.0972
   2090 H1'        14.1290   68.2801    7.0941 H        66   U69       0.1824
   2091 H3         13.5083   65.7769   11.0136 H        66   U69       0.3154
   2092 H5         15.4264   69.3425   12.2081 H        66   U69       0.1811
   2093 H6         15.0905   70.1734    9.9701 H        66   U69       0.2188
   2094 HO2'       11.1232   69.5606    6.2335 H        66   U69       0.4186
   2095 P          10.5340   72.4950    8.2010 P.3      67   G70       1.1662
   2096 OP1         9.7240   73.3750    7.3180 O.co2    67   G70      -0.7760
   2097 OP2        11.2070   73.0630    9.3990 O.co2    67   G70      -0.7760
   2098 O5'         9.6410   71.2630    8.6810 O.3      67   G70      -0.4989
   2099 C5'         8.8550   70.5530    7.7510 C.3      67   G70       0.0558
   2100 C4'         8.3830   69.2590    8.3550 C.3      67   G70       0.1065
   2101 O4'         9.5330   68.4760    8.7690 O.3      67   G70      -0.3548
   2102 C3'         7.5870   69.4180    9.6280 C.3      67   G70       0.2022
   2103 O3'         6.2330   69.7900    9.3550 O.3      67   G70      -0.5246
   2104 C2'         7.7300   68.0270   10.2600 C.3      67   G70       0.0670
   2105 O2'         6.8500   67.0580    9.7120 O.3      67   G70      -0.6139
   2106 C1'         9.1900   67.6940    9.9110 C.3      67   G70       0.0191
   2107 N9         10.1180   68.0130   10.9960 N.ar     67   G70       0.0492
   2108 C8         10.7600   69.2110   11.2050 C.ar     67   G70       0.1374
   2109 N7         11.4520   69.2470   12.3110 N.ar     67   G70      -0.5709
   2110 C5         11.2590   67.9990   12.8740 C.ar     67   G70       0.1744
   2111 C6         11.7480   67.4680   14.0900 C.2      67   G70       0.4770
   2112 O6         12.5060   68.0080   14.9040 O.2      67   G70      -0.5597
   2113 N1         11.2820   66.1700   14.3210 N.am     67   G70      -0.4787
   2114 C2         10.4530   65.4710   13.4670 C.2      67   G70       0.7657
   2115 N2         10.1260   64.2270   13.8330 N.pl3    67   G70      -0.9672
   2116 N3          9.9830   65.9630   12.3210 N.2      67   G70      -0.6323
   2117 C4         10.4130   67.2360   12.0970 C.ar     67   G70       0.1222
   2118 H5'         9.4509   70.3403    6.8634 H        67   G70       0.0679
   2119 H5''        7.9921   71.1573    7.4709 H        67   G70       0.0679
   2120 H4'         7.8003   68.7004    7.6225 H        67   G70       0.1174
   2121 H3'         8.0555   70.1660   10.2676 H        67   G70       0.0615
   2122 H2'         7.6026   68.0867   11.3409 H        67   G70       0.0972
   2123 H1'         9.2714   66.6356    9.6635 H        67   G70       0.2006
   2124 H8         10.6975   70.0429   10.5192 H        67   G70       0.1640
   2125 H1         11.5725   65.7116   15.1728 H        67   G70       0.3424
   2126 H21        10.4805   63.8456   14.6984 H        67   G70       0.4364
   2127 H22         9.5246   63.6689   13.2440 H        67   G70       0.4364
   2128 HO2'        6.8365   66.2817   10.2766 H        67   G70       0.4186
   2129 P           5.4930   70.8670   10.3030 P.3      68   A71       1.1662
   2130 OP1         4.0310   70.7710   10.0300 O.co2    68   A71      -0.7760
   2131 OP2         6.1960   72.1670   10.1630 O.co2    68   A71      -0.7760
   2132 O5'         5.7950   70.3140   11.7870 O.3      68   A71      -0.4989
   2133 C5'         5.0950   70.8110   12.9150 C.3      68   A71       0.0558
   2134 C4'         4.5510   69.6680   13.7750 C.3      68   A71       0.1065
   2135 O4'         3.5690   68.9280   13.0270 O.3      68   A71      -0.3548
   2136 C3'         5.5520   68.6100   14.2020 C.3      68   A71       0.2022
   2137 O3'         6.3080   69.0280   15.3500 O.3      68   A71      -0.5246
   2138 C2'         4.6610   67.3990   14.4890 C.3      68   A71       0.0670
   2139 O2'         4.2370   67.3170   15.8280 O.3      68   A71      -0.6139
   2140 C1'         3.4710   67.6150   13.5520 C.3      68   A71       0.0394
   2141 N9          3.4190   66.6800   12.4260 N.ar     68   A71      -0.0251
   2142 C8          3.4910   66.9970   11.0880 C.ar     68   A71       0.2006
   2143 N7          3.3380   65.9680   10.2860 N.ar     68   A71      -0.6073
   2144 C5          3.1850   64.8920   11.1450 C.ar     68   A71       0.0515
   2145 C6          2.9960   63.5040   10.9110 C.ar     68   A71       0.7009
   2146 N6          2.9410   62.9710    9.6780 N.pl3    68   A71      -0.9019
   2147 N1          2.8930   62.6790   11.9990 N.ar     68   A71      -0.7615
   2148 C2          2.9700   63.2210   13.2350 C.ar     68   A71       0.5875
   2149 N3          3.1400   64.5140   13.5780 N.ar     68   A71      -0.6997
   2150 C4          3.2410   65.3050   12.4730 C.ar     68   A71       0.3053
   2151 H5'         5.7733   71.4165   13.5161 H        68   A71       0.0679
   2152 H5''        4.2650   71.4314   12.5769 H        68   A71       0.0679
   2153 H4'         4.0779   70.0871   14.6631 H        68   A71       0.1174
   2154 H3'         6.2272   68.3850   13.3764 H        68   A71       0.0615
   2155 H2'         5.1847   66.4838   14.2128 H        68   A71       0.0972
   2156 H1'         2.5481   67.5306   14.1258 H        68   A71       0.2007
   2157 H8          3.6583   68.0021   10.7299 H        68   A71       0.1553
   2158 H2          2.8839   62.5260   14.0572 H        68   A71       0.0473
   2159 HO2'        4.7570   66.6545   16.2888 H        68   A71       0.4186
   2160 H61         3.0257   63.5661    8.8663 H        68   A71       0.4115
   2161 H62         2.8149   61.9755    9.5634 H        68   A71       0.4115
   2162 P           7.8670   68.6420   15.4310 P.3      69   A72       1.1662
   2163 OP1         8.4840   69.2660   16.6360 O.co2    69   A72      -0.7760
   2164 OP2         8.4660   68.9240   14.1030 O.co2    69   A72      -0.7760
   2165 O5'         7.7850   67.0470   15.6390 O.3      69   A72      -0.4989
   2166 C5'         7.3450   66.5040   16.8930 C.3      69   A72       0.0558
   2167 C4'         7.0620   65.0120   16.7850 C.3      69   A72       0.1065
   2168 O4'         6.0970   64.7760   15.7350 O.3      69   A72      -0.3548
   2169 C3'         8.2600   64.1560   16.4310 C.3      69   A72       0.2022
   2170 O3'         8.9490   63.7670   17.6020 O.3      69   A72      -0.5246
   2171 C2'         7.6420   62.9600   15.7150 C.3      69   A72       0.0670
   2172 O2'         7.3160   61.9030   16.6040 O.3      69   A72      -0.6139
   2173 C1'         6.3800   63.5560   15.0690 C.3      69   A72       0.0394
   2174 N9          6.5040   63.8340   13.6250 N.ar     69   A72      -0.0251
   2175 C8          6.8430   65.0370   13.0350 C.ar     69   A72       0.2006
   2176 N7          6.7970   65.0230   11.7180 N.ar     69   A72      -0.6073
   2177 C5          6.4300   63.7200   11.4150 C.ar     69   A72       0.0515
   2178 C6          6.2430   63.0550   10.1900 C.ar     69   A72       0.7009
   2179 N6          6.3970   63.6590    9.0170 N.pl3    69   A72      -0.9019
   2180 N1          5.8870   61.7350   10.2190 N.ar     69   A72      -0.7615
   2181 C2          5.7250   61.1310   11.4100 C.ar     69   A72       0.5875
   2182 N3          5.8900   61.6500   12.6370 N.ar     69   A72      -0.6997
   2183 C4          6.2450   62.9660   12.5730 C.ar     69   A72       0.3053
   2184 H5'         8.1220   66.6640   17.6405 H        69   A72       0.0679
   2185 H5''        6.4364   67.0184   17.2061 H        69   A72       0.0679
   2186 H4'         6.6465   64.6629   17.7303 H        69   A72       0.1174
   2187 H3'         8.9275   64.6965   15.7599 H        69   A72       0.0615
   2188 H2'         8.3201   62.5991   14.9416 H        69   A72       0.0972
   2189 H1'         5.5478   62.8694   15.2245 H        69   A72       0.2007
   2190 H8          7.1213   65.9120   13.6036 H        69   A72       0.1553
   2191 H2          5.4232   60.0946   11.3745 H        69   A72       0.0473
   2192 H61         6.6591   64.6338    8.9815 H        69   A72       0.4115
   2193 H62         6.2520   63.1435    8.1607 H        69   A72       0.4115
   2194 HO2'        8.1205   61.5507   16.9917 H        69   A72       0.4186
   2195 P          10.5280   64.0420   17.7180 P.3      70   A73       1.1662
   2196 OP1        11.0030   63.5600   19.0570 O.co2    70   A73      -0.7760
   2197 OP2        10.7930   65.4510   17.2890 O.co2    70   A73      -0.7760
   2198 O5'        11.1290   63.0750   16.5930 O.3      70   A73      -0.4989
   2199 C5'        10.9730   61.6510   16.6900 C.3      70   A73       0.0558
   2200 C4'        12.0090   60.9390   15.8430 C.3      70   A73       0.1065
   2201 O4'        11.9110   61.3700   14.4880 O.3      70   A73      -0.3548
   2202 C3'        13.4490   61.1990   16.2380 C.3      70   A73       0.2022
   2203 O3'        13.8650   60.1630   17.1270 O.3      70   A73      -0.5246
   2204 C2'        14.2190   61.1950   14.8860 C.3      70   A73       0.0670
   2205 O2'        15.1760   60.1480   14.7820 O.3      70   A73      -0.6139
   2206 C1'        13.0990   61.0140   13.8410 C.3      70   A73       0.0394
   2207 N9         13.2190   61.8410   12.6220 N.ar     70   A73      -0.0251
   2208 C8         13.5910   63.1560   12.5480 C.ar     70   A73       0.2006
   2209 N7         13.5040   63.6650   11.3470 N.ar     70   A73      -0.6073
   2210 C5         12.9900   62.6380   10.5850 C.ar     70   A73       0.0515
   2211 C6         12.7110   62.5360    9.2070 C.ar     70   A73       0.7009
   2212 N6         12.8750   63.5550    8.3610 N.pl3    70   A73      -0.9019
   2213 N1         12.2700   61.3370    8.7280 N.ar     70   A73      -0.7615
   2214 C2         12.1480   60.3110    9.5840 C.ar     70   A73       0.5875
   2215 N3         12.3460   60.3030   10.9110 N.ar     70   A73      -0.6997
   2216 C4         12.7980   61.5040   11.3470 C.ar     70   A73       0.3053
   2217 H5'         9.9770   61.3759   16.3429 H        70   A73       0.0679
   2218 H5''       11.0881   61.3466   17.7303 H        70   A73       0.0679
   2219 H4'        11.8209   59.8662   15.8853 H        70   A73       0.1174
   2220 H3'        13.5390   62.1716   16.7218 H        70   A73       0.0615
   2221 H2'        14.7086   62.1576   14.7382 H        70   A73       0.0972
   2222 H1'        13.0467   59.9637   13.5543 H        70   A73       0.2007
   2223 H8         13.9262   63.7221   13.4045 H        70   A73       0.1553
   2224 H2         11.8517   59.3684    9.1479 H        70   A73       0.0473
   2225 HO2'       16.0604   60.5135   14.8583 H        70   A73       0.4186
   2226 H61        12.7379   64.4753    8.7538 H        70   A73       0.4115
   2227 H62        13.1202   63.4150    7.3913 H        70   A73       0.4115
   2228 P          14.2270   60.4790   18.6590 P.3      71   U74       1.1662
   2229 OP1        14.5310   59.1900   19.3270 O.co2    71   U74      -0.7760
   2230 OP2        13.1770   61.3600   19.2340 O.co2    71   U74      -0.7760
   2231 O5'        15.5610   61.3440   18.4930 O.3      71   U74      -0.4989
   2232 C5'        16.6160   61.1800   19.3790 C.3      71   U74       0.0558
   2233 C4'        17.9280   61.1070   18.6290 C.3      71   U74       0.1065
   2234 O4'        19.0310   61.0920   19.5700 O.3      71   U74      -0.3548
   2235 C3'        18.1190   59.8580   17.7790 C.3      71   U74       0.2022
   2236 O3'        19.0930   60.1400   16.7430 O.3      71   U74      -0.5246
   2237 C2'        18.6620   58.8670   18.8190 C.3      71   U74       0.0670
   2238 O2'        19.4360   57.8320   18.2550 O.3      71   U74      -0.6139
   2239 C1'        19.5500   59.7770   19.6750 C.3      71   U74       0.0674
   2240 N1         19.6150   59.3970   21.1230 N.am     71   U74       0.0418
   2241 C2         20.8500   59.1030   21.6730 C.2      71   U74       0.4687
   2242 O2         21.8840   59.1110   21.0290 O.2      71   U74      -0.5477
   2243 N3         20.8310   58.7870   23.0150 N.am     71   U74      -0.3549
   2244 C4         19.7200   58.7160   23.8350 C.2      71   U74       0.5952
   2245 O4         19.8650   58.4290   25.0110 O.2      71   U74      -0.5761
   2246 C5         18.4580   59.0190   23.1910 C.2      71   U74      -0.3635
   2247 C6         18.4490   59.3310   21.8840 C.2      71   U74      -0.1126
   2248 H5'        16.6421   62.0253   20.0666 H        71   U74       0.0679
   2249 H5''       16.4722   60.2594   19.9445 H        71   U74       0.0679
   2250 H4'        18.0197   61.9860   17.9910 H        71   U74       0.1174
   2251 H3'        17.1747   59.5150   17.3561 H        71   U74       0.0615
   2252 H2'        17.8485   58.4547   19.4160 H        71   U74       0.0972
   2253 H1'        20.5599   59.7660   19.2650 H        71   U74       0.1824
   2254 H3         21.7228   58.5862   23.4444 H        71   U74       0.3154
   2255 H5         17.5367   58.9944   23.7540 H        71   U74       0.1811
   2256 H6         17.5033   59.5383   21.4054 H        71   U74       0.2188
   2257 HO2'       19.6840   57.2080   18.9411 H        71   U74       0.4186
   2258 P          18.7090   60.1260   15.1820 P.3      72   U75       1.1662
   2259 OP1        19.9810   60.1830   14.4380 O.co2    72   U75      -0.7760
   2260 OP2        17.6750   61.1470   14.9340 O.co2    72   U75      -0.7760
   2261 O5'        18.0240   58.6980   14.9710 O.3      72   U75      -0.4989
   2262 C5'        18.8220   57.5790   14.6420 C.3      72   U75       0.0558
   2263 C4'        18.0320   56.5580   13.8520 C.3      72   U75       0.1065
   2264 O4'        16.9260   56.0770   14.6370 O.3      72   U75      -0.3548
   2265 C3'        17.4390   57.0490   12.5300 C.3      72   U75       0.2022
   2266 O3'        17.7470   56.1150   11.5140 O.3      72   U75      -0.5246
   2267 C2'        15.9350   57.0820   12.8140 C.3      72   U75       0.0670
   2268 O2'        15.1420   56.8040   11.6740 O.3      72   U75      -0.6139
   2269 C1'        15.8110   55.9550   13.8120 C.3      72   U75       0.0674
   2270 N1         14.5870   56.0230   14.6180 N.am     72   U75       0.0418
   2271 C2         13.5850   55.0930   14.3880 C.2      72   U75       0.4687
   2272 O2         13.7020   54.1530   13.6240 O.2      72   U75      -0.5477
   2273 N3         12.4430   55.2730   15.1300 N.am     72   U75      -0.3549
   2274 C4         12.1830   56.2890   16.0270 C.2      72   U75       0.5952
   2275 O4         11.1050   56.3140   16.6070 O.2      72   U75      -0.5761
   2276 C5         13.2600   57.2490   16.1980 C.2      72   U75      -0.3635
   2277 C6         14.3930   57.0910   15.4930 C.2      72   U75      -0.1126
   2278 H5'        19.6712   57.9111   14.0448 H        72   U75       0.0679
   2279 H5''       19.1876   57.1175   15.5593 H        72   U75       0.0679
   2280 H4'        18.6877   55.7142   13.6370 H        72   U75       0.1174
   2281 H3'        17.8124   58.0413   12.2770 H        72   U75       0.0615
   2282 H2'        15.6465   58.0318   13.2643 H        72   U75       0.0972
   2283 H1'        15.8489   54.9998   13.2883 H        72   U75       0.1824
   2284 H3         11.7132   54.5860   15.0053 H        72   U75       0.3154
   2285 H5         13.1515   58.0778   16.8820 H        72   U75       0.1811
   2286 H6         15.1828   57.8185   15.6085 H        72   U75       0.2188
   2287 HO2'       15.4009   55.9577   11.3022 H        72   U75       0.4186
   2288 P          18.6030   56.5490   10.2420 P.3      73   C76       1.1662
   2289 OP1        18.9590   55.2960    9.5290 O.co2    73   C76      -0.7760
   2290 OP2        19.6670   57.4770   10.6930 O.co2    73   C76      -0.7760
   2291 O5'        17.5630   57.4070    9.3690 O.3      73   C76      -0.4989
   2292 C5'        16.8130   56.8250    8.3330 C.3      73   C76       0.0558
   2293 C4'        16.2390   57.8960    7.4140 C.3      73   C76       0.1065
   2294 O4'        15.2910   58.7140    8.1610 O.3      73   C76      -0.3548
   2295 C3'        17.2590   58.8590    6.8140 C.3      73   C76       0.2022
   2296 O3'        17.7060   58.3800    5.5190 O.3      73   C76      -0.5246
   2297 C2'        16.4820   60.1940    6.7300 C.3      73   C76       0.0670
   2298 O2'        15.7520   60.3650    5.5290 O.3      73   C76      -0.6139
   2299 C1'        15.5080   60.1010    7.9110 C.3      73   C76       0.0066
   2300 N1         15.9770   60.8070    9.1900 N.am     73   C76      -0.0484
   2301 C2         16.1830   62.2150    9.2120 C.2      73   C76       0.7538
   2302 O2         15.9890   62.8940    8.1940 O.2      73   C76      -0.6252
   2303 N3         16.6400   62.7890   10.3530 N.2      73   C76      -0.7584
   2304 C4         16.8040   62.0580   11.4590 C.2      73   C76       0.8185
   2305 N4         17.1910   62.6890   12.5730 N.pl3    73   C76      -0.9530
   2306 C5         16.5610   60.6490   11.4730 C.2      73   C76      -0.5215
   2307 C6         16.1270   60.0820   10.3400 C.2      73   C76       0.0053
   2308 H5'        17.4574   56.1643    7.7530 H        73   C76       0.0679
   2309 H5''       15.9965   56.2446    8.7626 H        73   C76       0.0679
   2310 H4'        15.7061   57.4046    6.6000 H        73   C76       0.1174
   2311 H3'        18.1107   58.9655    7.4859 H        73   C76       0.0615
   2312 H2'        17.1640   61.0320    6.8743 H        73   C76       0.0972
   2313 H1'        14.5600   60.5441    7.6059 H        73   C76       0.2029
   2314 H5         16.7218   60.0628   12.3657 H        73   C76       0.1928
   2315 H6         15.8901   59.0283   10.3343 H        73   C76       0.1958
   2316 H41        17.3552   63.6855   12.5579 H        73   C76       0.4234
   2317 H42        17.3191   62.1690   13.4293 H        73   C76       0.4234
   2318 HO2'       16.3611   60.4233    4.7893 H        73   C76       0.4186
   2319 P          19.2680   58.4140    5.1030 P.3      74   C77       1.1662
   2320 OP1        19.3890   57.7120    3.8080 O.co2    74   C77      -0.7760
   2321 OP2        20.1050   57.9810    6.2470 O.co2    74   C77      -0.7760
   2322 O5'        19.5530   59.9640    4.8990 O.3      74   C77      -0.4989
   2323 C5'        19.0970   60.6240    3.7320 C.3      74   C77       0.0558
   2324 C4'        19.3960   62.1040    3.8060 C.3      74   C77       0.1065
   2325 O4'        18.6440   62.6720    4.8990 O.3      74   C77      -0.3548
   2326 C3'        20.8300   62.4630    4.1350 C.3      74   C77       0.2022
   2327 O3'        21.6440   62.4140    2.9720 O.3      74   C77      -0.5246
   2328 C2'        20.6610   63.8790    4.6840 C.3      74   C77       0.0670
   2329 O2'        20.4740   64.8550    3.6690 O.3      74   C77      -0.6139
   2330 C1'        19.3770   63.7300    5.4860 C.3      74   C77       0.0066
   2331 N1         19.5940   63.4270    6.9390 N.am     74   C77      -0.0484
   2332 C2         19.9490   64.4590    7.8180 C.2      74   C77       0.7538
   2333 O2         20.1510   65.5760    7.3720 O.2      74   C77      -0.6252
   2334 N3         20.1010   64.1790    9.1350 N.2      74   C77      -0.7584
   2335 C4         19.8760   62.9410    9.5910 C.2      74   C77       0.8185
   2336 N4         20.0620   62.7130   10.8900 N.pl3    74   C77      -0.9530
   2337 C5         19.4890   61.8730    8.7260 C.2      74   C77      -0.5215
   2338 C6         19.3530   62.1590    7.4210 C.2      74   C77       0.0053
   2339 H5'        19.5987   60.2005    2.8620 H        74   C77       0.0679
   2340 H5''       18.0213   60.4786    3.6333 H        74   C77       0.0679
   2341 H4'        19.1035   62.5838    2.8720 H        74   C77       0.1174
   2342 H3'        21.2232   61.7991    4.9049 H        74   C77       0.0615
   2343 H2'        21.4954   64.1469    5.3321 H        74   C77       0.0972
   2344 H1'        18.7987   64.6499    5.4001 H        74   C77       0.2029
   2345 H5         19.3131   60.8772    9.1052 H        74   C77       0.1928
   2346 H6         19.0491   61.3807    6.7367 H        74   C77       0.1958
   2347 H41        20.3496   63.4658   11.4988 H        74   C77       0.4234
   2348 H42        19.9154   61.7872   11.2663 H        74   C77       0.4234
   2349 HO2'       21.2839   64.9497    3.1623 H        74   C77       0.4186
   2350 P          23.1970   62.0170    3.0860 P.3      75   A78       1.1662
   2351 OP1        23.7410   61.9500    1.7120 O.co2    75   A78      -0.7760
   2352 OP2        23.3200   60.8360    3.9800 O.co2    75   A78      -0.7760
   2353 O5'        23.8500   63.2740    3.8470 O.3      75   A78      -0.4989
   2354 C5'        24.0160   64.5240    3.1700 C.3      75   A78       0.0558
   2355 C4'        24.6870   65.5650    4.0590 C.3      75   A78       0.1065
   2356 O4'        23.7710   65.9940    5.0900 O.3      75   A78      -0.3548
   2357 C3'        25.9040   65.0970    4.8250 C.3      75   A78       0.2022
   2358 O3'        27.0630   65.1190    4.0120 O.3      75   A78      -0.5246
   2359 C2'        25.9640   66.1090    5.9620 C.3      75   A78       0.0670
   2360 O2'        26.5080   67.3530    5.5750 O.3      75   A78      -0.6139
   2361 C1'        24.4910   66.2680    6.2900 C.3      75   A78       0.0394
   2362 N9         24.0290   65.3610    7.3520 N.ar     75   A78      -0.0251
   2363 C8         23.2430   64.2450    7.2100 C.ar     75   A78       0.2006
   2364 N7         22.9920   63.6220    8.3340 N.ar     75   A78      -0.6073
   2365 C5         23.6320   64.3880    9.2830 C.ar     75   A78       0.0515
   2366 C6         23.7330   64.2680   10.6810 C.ar     75   A78       0.7009
   2367 N6         23.1560   63.2800   11.3740 N.pl3    75   A78      -0.9019
   2368 N1         24.4810   65.1890   11.3400 N.ar     75   A78      -0.7615
   2369 C2         25.0400   66.1880   10.6450 C.ar     75   A78       0.5875
   2370 N3         25.0380   66.3890    9.3260 N.ar     75   A78      -0.6997
   2371 C4         24.2940   65.4550    8.6980 C.ar     75   A78       0.3053
   2372 H5'        24.6321   64.3665    2.2847 H        75   A78       0.0679
   2373 H5''       23.0384   64.8951    2.8623 H        75   A78       0.0679
   2374 H4'        24.9621   66.4259    3.4497 H        75   A78       0.1174
   2375 H3'        25.7390   64.0946    5.2201 H        75   A78       0.0615
   2376 H2'        26.5065   65.6995    6.8141 H        75   A78       0.0972
   2377 H1'        24.3018   67.2979    6.5927 H        75   A78       0.2007
   2378 H8         22.8648   63.9102    6.2554 H        75   A78       0.1553
   2379 H2         25.5623   66.9302   11.2305 H        75   A78       0.0473
   2380 HO2'       27.1636   67.6304    6.2191 H        75   A78       0.4186
   2381 H61        23.0079   63.5272   12.3420 H        75   A78       0.4115
   2382 H62        22.8979   62.3888   10.9749 H        75   A78       0.4115
   2383 P          28.1660   63.9740    4.1980 P.3      76   A79       1.1662
   2384 OP1        29.1410   64.0850    3.0860 O.co2    76   A79      -0.7760
   2385 OP2        27.4680   62.6860    4.4300 O.co2    76   A79      -0.7760
   2386 O5'        28.8710   64.3870    5.5800 O.3      76   A79      -0.4989
   2387 C5'        29.6350   65.5780    5.6710 C.3      76   A79       0.0558
   2388 C4'        29.9160   65.9400    7.1140 C.3      76   A79       0.1065
   2389 O4'        28.6740   66.0190    7.8580 O.3      76   A79      -0.3548
   2390 C3'        30.7380   64.9300    7.8800 C.3      76   A79       0.2022
   2391 O3'        32.1200   65.0640    7.5710 O.3      76   A79      -0.5246
   2392 C2'        30.4120   65.3120    9.3210 C.3      76   A79       0.0670
   2393 O2'        31.1560   66.4290    9.7820 O.3      76   A79      -0.6139
   2394 C1'        28.9150   65.6540    9.2170 C.3      76   A79       0.0394
   2395 N9         28.0260   64.5320    9.5810 N.ar     76   A79      -0.0251
   2396 C8         27.4740   63.6080    8.7350 C.ar     76   A79       0.2006
   2397 N7         26.7690   62.6830    9.3400 N.ar     76   A79      -0.6073
   2398 C5         26.8880   62.9980   10.6820 C.ar     76   A79       0.0515
   2399 C6         26.3400   62.4200   11.8500 C.ar     76   A79       0.7009
   2400 N6         25.5470   61.3440   11.8400 N.pl3    76   A79      -0.9019
   2401 N1         26.6410   62.9920   13.0380 N.ar     76   A79      -0.7615
   2402 C2         27.4130   64.0850   13.0550 C.ar     76   A79       0.5875
   2403 N3         27.9680   64.7270   12.0250 N.ar     76   A79      -0.6997
   2404 C4         27.6640   64.1310   10.8530 C.ar     76   A79       0.3053
   2405 H5'        30.5815   65.4336    5.1501 H        76   A79       0.0679
   2406 H5''       29.0864   66.3924    5.1978 H        76   A79       0.0679
   2407 H4'        30.4158   66.9080    7.1489 H        76   A79       0.1174
   2408 H3'        30.3952   63.9176    7.6663 H        76   A79       0.0615
   2409 H2'        30.5608   64.4584    9.9823 H        76   A79       0.0972
   2410 H1'        28.6972   66.5064    9.8605 H        76   A79       0.2007
   2411 H8         27.6075   63.6384    7.6637 H        76   A79       0.1553
   2412 H2         27.6133   64.5025   14.0307 H        76   A79       0.0473
   2413 HO2'       31.8316   66.1326   10.3963 H        76   A79       0.4186
   2414 H61        25.2352   61.4656   12.7930 H        76   A79       0.4115
   2415 H62        25.3352   60.6553   11.1322 H        76   A79       0.4115
   2416 P          33.1010   63.7840    7.6620 P.3      77   A80       1.1662
   2417 OP1        34.3870   64.1560    7.0440 O.co2    77   A80      -0.7760
   2418 OP2        32.3840   62.5860    7.1560 O.co2    77   A80      -0.7760
   2419 O5'        33.3020   63.6190    9.2470 O.3      77   A80      -0.4989
   2420 C5'        34.1360   64.5290    9.9670 C.3      77   A80       0.0558
   2421 C4'        33.8710   64.4690   11.4610 C.3      77   A80       0.1065
   2422 O4'        32.4560   64.6700   11.7270 O.3      77   A80      -0.3548
   2423 C3'        34.2090   63.1510   12.1320 C.3      77   A80       0.2022
   2424 O3'        35.5800   63.1010   12.4500 O.3      77   A80      -0.5246
   2425 C2'        33.3290   63.2070   13.3770 C.3      77   A80       0.0670
   2426 O2'        33.8860   63.9910   14.4220 O.3      77   A80      -0.6139
   2427 C1'        32.0560   63.8580   12.8220 C.3      77   A80       0.0394
   2428 N9         31.0830   62.8760   12.3400 N.ar     77   A80      -0.0251
   2429 C8         30.8860   62.4730   11.0440 C.ar     77   A80       0.2006
   2430 N7         29.9990   61.5140   10.9070 N.ar     77   A80      -0.6073
   2431 C5         29.6060   61.2440   12.2050 C.ar     77   A80       0.0515
   2432 C6         28.7100   60.3030   12.7480 C.ar     77   A80       0.7009
   2433 N6         27.9740   59.4760   12.0030 N.pl3    77   A80      -0.9019
   2434 N1         28.5680   60.2760   14.0920 N.ar     77   A80      -0.7615
   2435 C2         29.2840   61.1300   14.8410 C.ar     77   A80       0.5875
   2436 N3         30.1790   62.0350   14.4490 N.ar     77   A80      -0.6997
   2437 C4         30.2890   62.0520   13.1070 C.ar     77   A80       0.3053
   2438 H5'        35.1795   64.2736    9.7826 H        77   A80       0.0679
   2439 H5''       33.9485   65.5423    9.6117 H        77   A80       0.0679
   2440 H4'        34.4349   65.2643   11.9484 H        77   A80       0.1174
   2441 H3'        33.9282   62.3105   11.4973 H        77   A80       0.0615
   2442 H2'        33.1139   62.1997   13.7336 H        77   A80       0.0972
   2443 H1'        31.5979   64.4801   13.5909 H        77   A80       0.2007
   2444 H8         31.4146   62.9068   10.2081 H        77   A80       0.1553
   2445 H2         29.1106   61.0756   15.9056 H        77   A80       0.0473
   2446 H61        27.2892   59.0817   12.6320 H        77   A80       0.4115
   2447 H62        28.0796   59.2845   11.0169 H        77   A80       0.4115
   2448 HO2'       34.6801   63.5654   14.7536 H        77   A80       0.4186
   2449 P          36.3540   61.6890   12.5500 P.3      78   A81       1.1662
   2450 OP1        37.8180   61.9720   12.4680 O.co2    78   A81      -0.7760
   2451 OP2        35.7300   60.7310   11.5840 O.co2    78   A81      -0.7760
   2452 O5'        36.0180   61.2220   14.0480 O.3      78   A81      -0.4989
   2453 C5'        35.2770   60.0690   14.2880 C.3      78   A81       0.0558
   2454 C4'        34.6450   60.1370   15.6510 C.3      78   A81       0.1065
   2455 O4'        33.2470   60.4980   15.5120 O.3      78   A81      -0.3548
   2456 C3'        34.6410   58.8170   16.3790 C.3      78   A81       0.2022
   2457 O3'        35.8270   58.6530   17.1120 O.3      78   A81      -0.5246
   2458 C2'        33.4140   58.9240   17.2710 C.3      78   A81       0.0670
   2459 O2'        33.6620   59.6070   18.4830 O.3      78   A81      -0.6139
   2460 C1'        32.4500   59.7080   16.3830 C.3      78   A81       0.0394
   2461 N9         31.5650   58.8480   15.5810 N.ar     78   A81      -0.0251
   2462 C8         31.6100   58.6500   14.2310 C.ar     78   A81       0.2006
   2463 N7         30.6920   57.8250   13.7820 N.ar     78   A81      -0.6073
   2464 C5         30.0290   57.4120   14.9210 C.ar     78   A81       0.0515
   2465 C6         28.9500   56.5120   15.1300 C.ar     78   A81       0.7009
   2466 N6         28.3670   55.8220   14.1500 N.pl3    78   A81      -0.9019
   2467 N1         28.5240   56.3230   16.4000 N.ar     78   A81      -0.7615
   2468 C2         29.1550   56.9750   17.3930 C.ar     78   A81       0.5875
   2469 N3         30.1710   57.8440   17.3160 N.ar     78   A81      -0.6997
   2470 C4         30.5610   58.0230   16.0420 C.ar     78   A81       0.3053
   2471 H5'        35.9343   59.2009   14.2381 H        78   A81       0.0679
   2472 H5''       34.4973   59.9762   13.5320 H        78   A81       0.0679
   2473 H4'        35.1577   60.8859   16.2547 H        78   A81       0.1174
   2474 H3'        34.5205   57.9974   15.6706 H        78   A81       0.0615
   2475 H2'        33.0120   57.9317   17.4757 H        78   A81       0.0972
   2476 H1'        31.8426   60.3643   17.0062 H        78   A81       0.2007
   2477 H8         32.3353   59.1288   13.5898 H        78   A81       0.1553
   2478 H2         28.7924   56.7694   18.3893 H        78   A81       0.0473
   2479 H61        27.6136   55.1914   14.3842 H        78   A81       0.4115
   2480 H62        28.6722   55.9275   13.1930 H        78   A81       0.4115
   2481 HO2'       34.2693   59.0942   19.0214 H        78   A81       0.4186
   2482 P          36.4900   57.2040   17.2040 P.3      79   C82       1.1662
   2483 OP1        37.6980   57.3060   18.0460 O.co2    79   C82      -0.7760
   2484 OP2        36.6120   56.6490   15.8310 O.co2    79   C82      -0.7760
   2485 O5'        35.3730   56.3640   17.9910 O.3      79   C82      -0.4989
   2486 C5'        35.1960   56.5510   19.3820 C.3      79   C82       0.0558
   2487 C4'        33.9390   55.8590   19.8860 C.3      79   C82       0.1065
   2488 O4'        32.7930   56.2470   19.0930 O.3      79   C82      -0.3548
   2489 C3'        33.9500   54.3420   19.8290 C.3      79   C82       0.2022
   2490 O3'        34.6140   53.8060   20.9650 O.3      79   C82      -0.5246
   2491 C2'        32.4620   54.0370   19.8630 C.3      79   C82       0.0670
   2492 O2'        31.9150   54.1430   21.1670 O.3      79   C82      -0.6139
   2493 C1'        31.9020   55.1400   18.9820 C.3      79   C82       0.0066
   2494 N1         31.7200   54.7380   17.5100 N.am     79   C82      -0.0484
   2495 C2         30.6430   53.9020   17.1410 C.2      79   C82       0.7538
   2496 O2         29.8640   53.5050   18.0080 O.2      79   C82      -0.6252
   2497 N3         30.4620   53.5920   15.8210 N.2      79   C82      -0.7584
   2498 C4         31.3130   54.0620   14.8980 C.2      79   C82       0.8185
   2499 N4         31.0900   53.7450   13.6210 N.pl3    79   C82      -0.9530
   2500 C5         32.4190   54.9020   15.2530 C.2      79   C82      -0.5215
   2501 C6         32.5820   55.2110   16.5490 C.2      79   C82       0.0053
   2502 H5'        35.1183   57.6186   19.5879 H        79   C82       0.0679
   2503 H5''       36.0608   56.1480   19.9090 H        79   C82       0.0679
   2504 H4'        33.7655   56.1652   20.9176 H        79   C82       0.1174
   2505 H3'        34.4036   53.9863   18.9039 H        79   C82       0.0615
   2506 H2'        32.2569   53.0560   19.4345 H        79   C82       0.0972
   2507 H1'        30.9319   55.4383   19.3794 H        79   C82       0.2029
   2508 H5         33.0995   55.2744   14.5016 H        79   C82       0.1928
   2509 H6         33.4065   55.8437   16.8427 H        79   C82       0.1958
   2510 H41        30.3041   53.1600   13.3757 H        79   C82       0.4234
   2511 H42        31.7072   54.0901   12.8998 H        79   C82       0.4234
   2512 HO2'       31.0722   53.6845   21.1992 H        79   C82       0.4186
   2513 P          35.4210   52.4300   20.8450 P.3      80   C83       1.1662
   2514 OP1        36.2550   52.2740   22.0710 O.co2    80   C83      -0.7760
   2515 OP2        36.0610   52.3730   19.4990 O.co2    80   C83      -0.7760
   2516 O5'        34.2540   51.3490   20.8850 O.3      80   C83      -0.4989
   2517 C5'        33.3980   51.2720   22.0030 C.3      80   C83       0.0558
   2518 C4'        32.2710   50.3070   21.7360 C.3      80   C83       0.1065
   2519 O4'        31.5070   50.7500   20.6020 O.3      80   C83      -0.3548
   2520 C3'        32.7120   48.9200   21.3780 C.3      80   C83       0.2022
   2521 O3'        32.9340   48.1850   22.5710 O.3      80   C83      -0.5246
   2522 C2'        31.5220   48.3970   20.5680 C.3      80   C83       0.0670
   2523 O2'        30.4720   47.9310   21.3690 O.3      80   C83      -0.6139
   2524 C1'        31.0550   49.6320   19.8550 C.3      80   C83       0.0066
   2525 N1         31.4760   49.7500   18.3980 N.am     80   C83      -0.0484
   2526 C2         30.6750   49.1570   17.3910 C.2      80   C83       0.7538
   2527 O2         29.7160   48.4400   17.7120 O.2      80   C83      -0.6252
   2528 N3         30.9440   49.4340   16.0840 N.2      80   C83      -0.7584
   2529 C4         31.9750   50.2240   15.7610 C.2      80   C83       0.8185
   2530 N4         32.2570   50.3860   14.4600 N.pl3    80   C83      -0.9530
   2531 C5         32.7990   50.8340   16.7650 C.2      80   C83      -0.5215
   2532 C6         32.5090   50.5820   18.0530 C.2      80   C83       0.0053
   2533 H5'        33.9666   50.9297   22.8677 H        80   C83       0.0679
   2534 H5''       32.9858   52.2595   22.2103 H        80   C83       0.0679
   2535 H4'        31.6220   50.2626   22.6106 H        80   C83       0.1174
   2536 H3'        33.6141   48.9467   20.7667 H        80   C83       0.0615
   2537 H2'        31.8392   47.6333   19.8579 H        80   C83       0.0972
   2538 H1'        29.9654   49.6361   19.8838 H        80   C83       0.2029
   2539 H5         33.6253   51.4747   16.4945 H        80   C83       0.1928
   2540 H6         33.1005   51.0434   18.8299 H        80   C83       0.1958
   2541 H41        31.6853   49.9361   13.7594 H        80   C83       0.4234
   2542 H42        33.0412   50.9579   14.1807 H        80   C83       0.4234
   2543 HO2'       30.3573   46.9880   21.2303 H        80   C83       0.4186
   2544 P          34.3120   47.4080   22.7870 P.3      81   G84       1.1662
   2545 OP1        34.6150   47.4010   24.2280 O.co2    81   G84      -0.7760
   2546 OP2        35.2940   47.9510   21.8280 O.co2    81   G84      -0.7760
   2547 O5'        33.9610   45.9310   22.3410 O.3      81   G84      -0.4989
   2548 C5'        32.7360   45.3390   22.7640 C.3      81   G84       0.0558
   2549 C4'        32.1510   44.4870   21.6630 C.3      81   G84       0.1065
   2550 O4'        31.8350   45.3250   20.5510 O.3      81   G84      -0.3548
   2551 C3'        33.0860   43.4180   21.1220 C.3      81   G84       0.2022
   2552 O3'        32.8130   42.2480   21.7920 O.3      81   G84      -0.5246
   2553 C2'        32.6940   43.2960   19.6450 C.3      81   G84       0.0670
   2554 O2'        31.8030   42.1980   19.3980 O.3      81   G84      -0.6139
   2555 C1'        31.9910   44.6160   19.3460 C.3      81   G84       0.0191
   2556 N9         32.6640   45.4670   18.3590 N.ar     81   G84       0.0492
   2557 C8         33.6310   46.4200   18.5910 C.ar     81   G84       0.1374
   2558 N7         33.9330   47.1270   17.5320 N.ar     81   G84      -0.5709
   2559 C5         33.0930   46.6320   16.5450 C.ar     81   G84       0.1744
   2560 C6         32.9790   46.9830   15.1770 C.2      81   G84       0.4770
   2561 O6         33.6150   47.8370   14.5510 O.2      81   G84      -0.5597
   2562 N1         31.9890   46.2390   14.5300 N.am     81   G84      -0.4787
   2563 C2         31.2280   45.2580   15.1200 C.2      81   G84       0.7657
   2564 N2         30.3360   44.6420   14.3390 N.pl3    81   G84      -0.9672
   2565 N3         31.3530   44.8850   16.3810 N.2      81   G84      -0.6323
   2566 C4         32.2990   45.6190   17.0380 C.ar     81   G84       0.1222
   2567 H5'        32.9224   44.7159   23.6387 H        81   G84       0.0679
   2568 H5''       32.0277   46.1250   23.0261 H        81   G84       0.0679
   2569 H4'        31.2381   44.0136   22.0244 H        81   G84       0.1174
   2570 H3'        34.1307   43.7077   21.2347 H        81   G84       0.0615
   2571 H2'        33.5871   43.1994   19.0276 H        81   G84       0.0972
   2572 H1'        30.9966   44.3850   18.9641 H        81   G84       0.2006
   2573 H8         34.0955   46.5694   19.5545 H        81   G84       0.1640
   2574 H1         31.8196   46.4371   13.5542 H        81   G84       0.3424
   2575 H21        30.2405   44.9127   13.3706 H        81   G84       0.4364
   2576 H22        29.7572   43.9056   14.7170 H        81   G84       0.4364
   2577 HO2'       32.0401   41.7728   18.5706 H        81   G84       0.4186
   2578 P          33.9110   41.1210   21.9660 P.3      82   A85       1.1662
   2579 OP1        35.0560   41.7140   22.6940 O.co2    82   A85      -0.7760
   2580 OP2        34.1180   40.4330   20.6570 O.co2    82   A85      -0.7760
   2581 O5'        33.1390   40.1090   22.9320 O.3      82   A85      -0.4989
   2582 C5'        32.5230   40.6080   24.1070 C.3      82   A85       0.0558
   2583 C4'        31.8670   39.4980   24.8810 C.3      82   A85       0.1065
   2584 O4'        30.7590   38.9910   24.1030 O.3      82   A85      -0.3548
   2585 C3'        32.7330   38.2800   25.1320 C.3      82   A85       0.2022
   2586 O3'        33.5380   38.4640   26.2560 O.3      82   A85      -0.5246
   2587 C2'        31.6810   37.1910   25.3450 C.3      82   A85       0.0670
   2588 O2'        31.1180   37.1980   26.6570 O.3      82   A85      -0.6139
   2589 C1'        30.6270   37.5860   24.3050 C.3      82   A85       0.0394
   2590 N9         30.7870   36.9350   23.0070 N.ar     82   A85      -0.0251
   2591 C8         31.2530   37.5140   21.8620 C.ar     82   A85       0.2006
   2592 N7         31.3380   36.6970   20.8420 N.ar     82   A85      -0.6073
   2593 C5         30.9000   35.4940   21.3410 C.ar     82   A85       0.0515
   2594 C6         30.7460   34.2160   20.7460 C.ar     82   A85       0.7009
   2595 N6         31.0330   33.9530   19.4540 N.pl3    82   A85      -0.9019
   2596 N1         30.3130   33.2110   21.5460 N.ar     82   A85      -0.7615
   2597 C2         30.0410   33.4790   22.8460 C.ar     82   A85       0.5875
   2598 N3         30.1370   34.6390   23.5050 N.ar     82   A85      -0.6997
   2599 C4         30.5620   35.6160   22.6880 C.ar     82   A85       0.3053
   2600 H5'        33.2795   41.0811   24.7332 H        82   A85       0.0679
   2601 H5''       31.7708   41.3473   23.8319 H        82   A85       0.0679
   2602 H4'        31.4982   39.8848   25.8310 H        82   A85       0.1174
   2603 H3'        33.3430   38.0570   24.2566 H        82   A85       0.0615
   2604 H2'        32.0958   36.2099   25.1135 H        82   A85       0.0972
   2605 H1'        29.6335   37.3694   24.6976 H        82   A85       0.2007
   2606 H8         31.5281   38.5567   21.8024 H        82   A85       0.1553
   2607 H2         29.6989   32.6387   23.4319 H        82   A85       0.0473
   2608 H61        30.9011   32.9666   19.2815 H        82   A85       0.4115
   2609 H62        31.3316   34.6331   18.7696 H        82   A85       0.4115
   2610 HO2'       31.7902   36.9488   27.2955 H        82   A85       0.4186
   2611 P          35.0460   37.9140   26.2490 P.3      83   C86       1.1662
   2612 OP1        35.6760   38.3130   27.5320 O.co2    83   C86      -0.7760
   2613 OP2        35.6880   38.3080   24.9730 O.co2    83   C86      -0.7760
   2614 O5'        34.8690   36.3320   26.2280 O.3      83   C86      -0.4989
   2615 C5'        34.5100   35.6630   27.4200 C.3      83   C86       0.0558
   2616 C4'        34.0360   34.2690   27.1280 C.3      83   C86       0.1065
   2617 O4'        33.0830   34.3010   26.0480 O.3      83   C86      -0.3548
   2618 C3'        35.1000   33.3300   26.6280 C.3      83   C86       0.2022
   2619 O3'        35.8480   32.8700   27.6850 O.3      83   C86      -0.5246
   2620 C2'        34.2490   32.2420   25.9980 C.3      83   C86       0.0670
   2621 O2'        33.6160   31.3990   26.9610 O.3      83   C86      -0.6139
   2622 C1'        33.1970   33.1030   25.2910 C.3      83   C86       0.0066
   2623 N1         33.5280   33.4500   23.8500 N.am     83   C86      -0.0484
   2624 C2         33.4250   32.4610   22.8560 C.2      83   C86       0.7538
   2625 O2         33.1000   31.3130   23.1760 O.2      83   C86      -0.6252
   2626 N3         33.6810   32.8030   21.5610 N.2      83   C86      -0.7584
   2627 C4         34.0350   34.0590   21.2530 C.2      83   C86       0.8185
   2628 N4         34.3080   34.3330   19.9750 N.pl3    83   C86      -0.9530
   2629 C5         34.1460   35.0750   22.2450 C.2      83   C86      -0.5215
   2630 C6         33.8690   34.7380   23.5120 C.2      83   C86       0.0053
   2631 H5'        33.7105   36.2161   27.9129 H        83   C86       0.0679
   2632 H5''       35.3756   35.6171   28.0809 H        83   C86       0.0679
   2633 H4'        33.5664   33.8489   28.0174 H        83   C86       0.1174
   2634 H3'        35.7312   33.8143   25.8829 H        83   C86       0.0615
   2635 H2'        34.8253   31.6571   25.2812 H        83   C86       0.0972
   2636 H1'        32.2410   32.5799   25.3155 H        83   C86       0.2029
   2637 H5         34.4427   36.0805   21.9855 H        83   C86       0.1928
   2638 H6         33.9146   35.4932   24.2827 H        83   C86       0.1958
   2639 H41        34.2362   33.6071   19.2764 H        83   C86       0.4234
   2640 H42        34.5864   35.2661   19.7069 H        83   C86       0.4234
   2641 HO2'       34.2786   30.8616   27.4013 H        83   C86       0.4186
   2642 P          37.4330   33.0420   27.6670 P.3      84   A87       1.1662
   2643 OP1        37.9120   32.8160   29.0520 O.co2    84   A87      -0.7760
   2644 OP2        37.7760   34.3100   26.9770 O.co2    84   A87      -0.7760
   2645 O5'        37.8940   31.8300   26.7310 O.3      84   A87      -0.4989
   2646 C5'        37.7530   30.5170   27.1940 C.3      84   A87       0.0558
   2647 C4'        37.6950   29.5370   26.0520 C.3      84   A87       0.1065
   2648 O4'        36.6970   29.9530   25.1080 O.3      84   A87      -0.3548
   2649 C3'        38.9330   29.4520   25.1960 C.3      84   A87       0.2022
   2650 O3'        39.9530   28.7420   25.8150 O.3      84   A87      -0.5246
   2651 C2'        38.3880   28.7460   23.9730 C.3      84   A87       0.0670
   2652 O2'        38.1410   27.3720   24.1760 O.3      84   A87      -0.6139
   2653 C1'        37.0720   29.4790   23.8100 C.3      84   A87       0.0394
   2654 N9         37.1620   30.6020   22.8770 N.ar     84   A87      -0.0251
   2655 C8         37.0220   31.9360   23.1610 C.ar     84   A87       0.2006
   2656 N7         37.1160   32.7120   22.1080 N.ar     84   A87      -0.6073
   2657 C5         37.3480   31.8320   21.0670 C.ar     84   A87       0.0515
   2658 C6         37.5030   32.0170   19.6760 C.ar     84   A87       0.7009
   2659 N6         37.4720   33.2140   19.0830 N.pl3    84   A87      -0.9019
   2660 N1         37.7140   30.9170   18.9160 N.ar     84   A87      -0.7615
   2661 C2         37.7470   29.7160   19.5000 C.ar     84   A87       0.5875
   2662 N3         37.5720   29.4130   20.7850 N.ar     84   A87      -0.6997
   2663 C4         37.3850   30.5270   21.5230 C.ar     84   A87       0.3053
   2664 H5'        38.6039   30.2715   27.8294 H        84   A87       0.0679
   2665 H5''       36.8361   30.4402   27.7783 H        84   A87       0.0679
   2666 H4'        37.4463   28.5466   26.4333 H        84   A87       0.1174
   2667 H3'        39.2771   30.4518   24.9314 H        84   A87       0.0615
   2668 H2'        39.0338   28.9042   23.1093 H        84   A87       0.0972
   2669 H1'        36.3159   28.7793   23.4538 H        84   A87       0.2007
   2670 H8         36.8504   32.3125   24.1586 H        84   A87       0.1553
   2671 H2         37.9412   28.8807   18.8436 H        84   A87       0.0473
   2672 H61        36.9672   32.9808   18.2398 H        84   A87       0.4115
   2673 H62        37.8468   34.1000   19.3905 H        84   A87       0.4115
   2674 HO2'       38.9752   26.9083   24.2792 H        84   A87       0.4186
   2675 P          41.4510   29.3040   25.7060 P.3      85   G88       1.1662
   2676 OP1        42.2820   28.5700   26.6920 O.co2    85   G88      -0.7760
   2677 OP2        41.4220   30.7840   25.7500 O.co2    85   G88      -0.7760
   2678 O5'        41.8660   28.8700   24.2310 O.3      85   G88      -0.4989
   2679 C5'        41.9410   27.4980   23.9040 C.3      85   G88       0.0558
   2680 C4'        42.3240   27.3040   22.4550 C.3      85   G88       0.1065
   2681 O4'        41.2650   27.8160   21.6220 O.3      85   G88      -0.3548
   2682 C3'        43.5520   28.0700   22.0010 C.3      85   G88       0.2022
   2683 O3'        44.7550   27.3920   22.3670 O.3      85   G88      -0.5246
   2684 C2'        43.3390   28.1150   20.4960 C.3      85   G88       0.0670
   2685 O2'        43.7090   26.9070   19.8520 O.3      85   G88      -0.6139
   2686 C1'        41.8220   28.3180   20.4170 C.3      85   G88       0.0191
   2687 N9         41.4100   29.7190   20.2260 N.ar     85   G88       0.0492
   2688 C8         41.0560   30.6270   21.1940 C.ar     85   G88       0.1374
   2689 N7         40.7640   31.8080   20.7200 N.ar     85   G88      -0.5709
   2690 C5         40.9190   31.6690   19.3520 C.ar     85   G88       0.1744
   2691 C6         40.7140   32.6090   18.3170 C.2      85   G88       0.4770
   2692 O6         40.3690   33.7930   18.4200 O.2      85   G88      -0.5597
   2693 N1         40.9940   32.0710   17.0580 N.am     85   G88      -0.4787
   2694 C2         41.4200   30.7790   16.8360 C.2      85   G88       0.7657
   2695 N2         41.6490   30.4380   15.5620 N.pl3    85   G88      -0.9672
   2696 N3         41.5960   29.8810   17.7980 N.2      85   G88      -0.6323
   2697 C4         41.3230   30.3940   19.0290 C.ar     85   G88       0.1222
   2698 H5'        40.9693   27.0366   24.0801 H        85   G88       0.0679
   2699 H5''       42.6859   27.0184   24.5390 H        85   G88       0.0679
   2700 H4'        42.4632   26.2417   22.2546 H        85   G88       0.1174
   2701 H3'        43.5443   29.0782   22.4151 H        85   G88       0.0615
   2702 H2'        43.8650   28.9629   20.0572 H        85   G88       0.0972
   2703 H1'        41.4368   27.7277   19.5856 H        85   G88       0.2006
   2704 H8         41.0224   30.3870   22.2465 H        85   G88       0.1640
   2705 H1         40.8759   32.6711   16.2542 H        85   G88       0.3424
   2706 H21        41.5124   31.1155   14.8255 H        85   G88       0.4364
   2707 H22        41.9584   29.5032   15.3372 H        85   G88       0.4364
   2708 HO2'       44.6604   26.7920   19.9086 H        85   G88       0.4186
   2709 P          46.0150   28.2390   22.9240 P.3      86   U89       1.1662
   2710 OP1        47.0120   27.2810   23.4480 O.co2    86   U89      -0.7760
   2711 OP2        45.5130   29.3100   23.8050 O.co2    86   U89      -0.7760
   2712 O5'        46.6090   28.9320   21.6120 O.3      86   U89      -0.4989
   2713 C5'        47.1280   28.1280   20.5500 C.3      86   U89       0.0558
   2714 C4'        47.2690   28.9400   19.2840 C.3      86   U89       0.1065
   2715 O4'        45.9730   29.4500   18.9110 O.3      86   U89      -0.3548
   2716 C3'        48.1350   30.1780   19.4220 C.3      86   U89       0.2022
   2717 O3'        49.5040   29.8400   19.2620 O.3      86   U89      -0.5246
   2718 C2'        47.6160   31.0700   18.2940 C.3      86   U89       0.0670
   2719 O2'        48.2220   30.7980   17.0400 O.3      86   U89      -0.6139
   2720 C1'        46.1260   30.7090   18.2610 C.3      86   U89       0.0674
   2721 N1         45.2130   31.7530   18.9070 N.am     86   U89       0.0418
   2722 C2         44.5230   32.6380   18.0970 C.2      86   U89       0.4687
   2723 O2         44.5800   32.6150   16.8840 O.2      86   U89      -0.5477
   2724 N3         43.7570   33.5690   18.7730 N.am     86   U89      -0.3549
   2725 C4         43.5870   33.6810   20.1480 C.2      86   U89       0.5952
   2726 O4         42.8480   34.5550   20.6090 O.2      86   U89      -0.5761
   2727 C5         44.3260   32.7170   20.9230 C.2      86   U89      -0.3635
   2728 C6         45.0970   31.8150   20.2910 C.2      86   U89      -0.1126
   2729 H5'        48.1060   27.7428   20.8384 H        86   U89       0.0679
   2730 H5''       46.4519   27.2926   20.3680 H        86   U89       0.0679
   2731 H4'        47.6577   28.3084   18.4852 H        86   U89       0.1174
   2732 H3'        47.9702   30.6524   20.3894 H        86   U89       0.0615
   2733 H2'        47.7439   32.1206   18.5547 H        86   U89       0.0972
   2734 H1'        45.8268   30.5929   17.2193 H        86   U89       0.1824
   2735 H3         43.2657   34.2436   18.2041 H        86   U89       0.3154
   2736 H5         44.2612   32.7190   22.0011 H        86   U89       0.1811
   2737 H6         45.6523   31.1053   20.8864 H        86   U89       0.2188
   2738 HO2'       48.1271   31.5615   16.4659 H        86   U89       0.4186
   2739 P          50.6410   30.6920   20.0050 P.3      87   A90       1.1662
   2740 OP1        51.9490   30.0510   19.7170 O.co2    87   A90      -0.7760
   2741 OP2        50.2190   30.9060   21.4090 O.co2    87   A90      -0.7760
   2742 O5'        50.5590   32.0990   19.2530 O.3      87   A90      -0.4989
   2743 C5'        51.7000   32.8830   19.0910 C.3      87   A90       0.0558
   2744 C4'        51.3480   34.3540   19.1190 C.3      87   A90       0.1065
   2745 O4'        52.3780   35.0990   18.4390 O.3      87   A90      -0.3548
   2746 C3'        50.0100   34.7640   18.4500 C.3      87   A90       0.2022
   2747 O3'        49.2340   35.5480   19.3950 O.3      87   A90      -0.5246
   2748 C2'        50.4770   35.6340   17.2580 C.3      87   A90       0.0670
   2749 O2'        49.5970   36.7120   16.9730 O.3      87   A90      -0.6139
   2750 C1'        51.7720   36.1790   17.8220 C.3      87   A90       0.0394
   2751 N9         52.6830   36.7720   16.8600 N.ar     87   A90      -0.0251
   2752 C8         52.8590   36.4220   15.5540 C.ar     87   A90       0.2006
   2753 N7         53.6700   37.2170   14.9010 N.ar     87   A90      -0.6073
   2754 C5         54.0590   38.1490   15.8490 C.ar     87   A90       0.0515
   2755 C6         54.9500   39.2520   15.8040 C.ar     87   A90       0.7009
   2756 N6         55.6160   39.6180   14.7100 N.pl3    87   A90      -0.9019
   2757 N1         55.1300   39.9620   16.9420 N.ar     87   A90      -0.7615
   2758 C2         54.4550   39.5970   18.0460 C.ar     87   A90       0.5875
   2759 N3         53.6090   38.5770   18.2090 N.ar     87   A90      -0.6997
   2760 C4         53.4700   37.8750   17.0670 C.ar     87   A90       0.3053
   2761 H5'        52.3995   32.6674   19.8987 H        87   A90       0.0679
   2762 H5''       52.1683   32.6435   18.1363 H        87   A90       0.0679
   2763 H4'        51.3226   34.6788   20.1592 H        87   A90       0.1174
   2764 H3'        49.4538   33.8908   18.1090 H        87   A90       0.0615
   2765 H2'        50.6570   35.0259   16.3715 H        87   A90       0.0972
   2766 H1'        51.5342   36.9244   18.5809 H        87   A90       0.2007
   2767 H8         52.3753   35.5695   15.1005 H        87   A90       0.1553
   2768 H2         54.6193   40.2118   18.9186 H        87   A90       0.0473
   2769 HO2'       50.0922   37.4348   16.5806 H        87   A90       0.4186
   2770 H61        55.7103   38.9512   13.9573 H        87   A90       0.4115
   2771 H62        56.0177   40.5416   14.6349 H        87   A90       0.4115
   2772 P          47.9690   34.9430   20.1770 P.3      88   G91       1.1662
   2773 OP1        48.4520   34.2910   21.4310 O.co2    88   G91      -0.7760
   2774 OP2        47.1530   34.1690   19.2240 O.co2    88   G91      -0.7760
   2775 O5'        47.1770   36.2780   20.5370 O.3      88   G91      -0.4989
   2776 C5'        46.2320   36.3070   21.5810 C.3      88   G91       0.0558
   2777 C4'        45.9010   37.7450   21.9460 C.3      88   G91       0.1065
   2778 O4'        47.1230   38.5050   22.1610 O.3      88   G91      -0.3548
   2779 C3'        45.1010   38.5280   20.9040 C.3      88   G91       0.2022
   2780 O3'        44.1060   39.2880   21.5760 O.3      88   G91      -0.5246
   2781 C2'        46.1540   39.4360   20.2540 C.3      88   G91       0.0670
   2782 O2'        45.5890   40.6300   19.7270 O.3      88   G91      -0.6139
   2783 C1'        47.0380   39.7330   21.4620 C.3      88   G91       0.0191
   2784 N9         48.3990   40.2020   21.1540 N.ar     88   G91       0.0492
   2785 C8         49.4990   39.4230   20.8540 C.ar     88   G91       0.1374
   2786 N7         50.6140   40.0990   20.7710 N.ar     88   G91      -0.5709
   2787 C5         50.2350   41.4080   21.0240 C.ar     88   G91       0.1744
   2788 C6         51.0140   42.5920   21.0530 C.2      88   G91       0.4770
   2789 O6         52.2220   42.7210   20.7730 O.2      88   G91      -0.5597
   2790 N1         50.2500   43.7140   21.3990 N.am     88   G91      -0.4787
   2791 C2         48.9020   43.6870   21.6850 C.2      88   G91       0.7657
   2792 N2         48.3260   44.8630   21.9960 N.pl3    88   G91      -0.9672
   2793 N3         48.1590   42.5820   21.6400 N.2      88   G91      -0.6323
   2794 C4         48.8850   41.4870   21.2900 C.ar     88   G91       0.1222
   2795 H5'        45.3232   35.7986   21.2588 H        88   G91       0.0679
   2796 H5''       46.6413   35.7976   22.4534 H        88   G91       0.0679
   2797 H4'        45.3346   37.7390   22.8772 H        88   G91       0.1174
   2798 H3'        44.6534   37.8586   20.1694 H        88   G91       0.0615
   2799 H2'        46.7113   38.8981   19.4871 H        88   G91       0.0972
   2800 H1'        46.5419   40.4694   22.0942 H        88   G91       0.2006
   2801 H8         49.4429   38.3552   20.7022 H        88   G91       0.1640
   2802 H1         50.7206   44.6066   21.4420 H        88   G91       0.3424
   2803 H21        48.8813   45.7062   22.0215 H        88   G91       0.4364
   2804 H22        47.3384   44.9023   22.2038 H        88   G91       0.4364
   2805 HO2'       44.7324   40.4354   19.3398 H        88   G91       0.4186
   2806 P          42.5680   39.0120   21.3000 P.3      89   A92       1.1662
   2807 OP1        41.7930   40.0340   22.0440 O.co2    89   A92      -0.7760
   2808 OP2        42.3100   37.5540   21.5250 O.co2    89   A92      -0.7760
   2809 O5'        42.4620   39.2880   19.7390 O.3      89   A92      -0.4989
   2810 C5'        42.1650   40.5760   19.2470 C.3      89   A92       0.0558
   2811 C4'        41.2880   40.4510   18.0230 C.3      89   A92       0.1065
   2812 O4'        41.8300   39.4300   17.1530 O.3      89   A92      -0.3548
   2813 C3'        39.8490   40.0380   18.3010 C.3      89   A92       0.2022
   2814 O3'        38.9930   40.7910   17.4620 O.3      89   A92      -0.5246
   2815 C2'        39.8530   38.5380   17.9460 C.3      89   A92       0.0670
   2816 O2'        38.5900   38.0490   17.5360 O.3      89   A92      -0.6139
   2817 C1'        40.8300   38.5280   16.7900 C.3      89   A92       0.0394
   2818 N9         41.4640   37.2480   16.5220 N.ar     89   A92      -0.0251
   2819 C8         42.0690   36.4230   17.4210 C.ar     89   A92       0.2006
   2820 N7         42.6320   35.3710   16.8790 N.ar     89   A92      -0.6073
   2821 C5         42.4060   35.5320   15.5210 C.ar     89   A92       0.0515
   2822 C6         42.7630   34.7560   14.3840 C.ar     89   A92       0.7009
   2823 N6         43.3950   33.5820   14.4620 N.pl3    89   A92      -0.9019
   2824 N1         42.4030   35.2180   13.1640 N.ar     89   A92      -0.7615
   2825 C2         41.7250   36.3670   13.0880 C.ar     89   A92       0.5875
   2826 N3         41.3120   37.1630   14.0770 N.ar     89   A92      -0.6997
   2827 C4         41.6950   36.6880   15.2820 C.ar     89   A92       0.3053
   2828 H5'        41.6413   41.1470   20.0137 H        89   A92       0.0679
   2829 H5''       43.0906   41.0867   18.9812 H        89   A92       0.0679
   2830 H4'        41.2857   41.4027   17.4917 H        89   A92       0.1174
   2831 H3'        39.5966   40.1889   19.3506 H        89   A92       0.0615
   2832 H2'        40.2392   37.9492   18.7781 H        89   A92       0.0972
   2833 H1'        40.3304   38.8823   15.8884 H        89   A92       0.2007
   2834 H8         42.0835   36.6179   18.4832 H        89   A92       0.1553
   2835 H2         41.4772   36.6968   12.0899 H        89   A92       0.0473
   2836 HO2'       38.3437   38.4567   16.7025 H        89   A92       0.4186
   2837 H61        43.6592   33.5690   15.4368 H        89   A92       0.4115
   2838 H62        43.5631   32.8941   13.7418 H        89   A92       0.4115
   2839 P          38.3810   42.1870   17.9720 P.3      90   G93       1.1662
   2840 OP1        39.0040   43.2870   17.2050 O.co2    90   G93      -0.7760
   2841 OP2        38.4400   42.2220   19.4590 O.co2    90   G93      -0.7760
   2842 O5'        36.8490   42.0610   17.5200 O.3      90   G93      -0.4989
   2843 C5'        36.0810   40.9350   17.9030 C.3      90   G93       0.0558
   2844 C4'        34.8300   40.8320   17.0690 C.3      90   G93       0.1065
   2845 O4'        34.2130   42.1300   16.9750 O.3      90   G93      -0.3548
   2846 C3'        35.0610   40.3700   15.6440 C.3      90   G93       0.2022
   2847 O3'        34.9120   38.9650   15.5860 O.3      90   G93      -0.5246
   2848 C2'        33.9620   41.0930   14.8740 C.3      90   G93       0.0670
   2849 O2'        32.7130   40.4040   14.9170 O.3      90   G93      -0.6139
   2850 C1'        33.8470   42.4020   15.6460 C.3      90   G93       0.0191
   2851 N9         34.6750   43.5100   15.1560 N.ar     90   G93       0.0492
   2852 C8         35.4320   44.3630   15.9300 C.ar     90   G93       0.1374
   2853 N7         35.9320   45.3680   15.2760 N.ar     90   G93      -0.5709
   2854 C5         35.4590   45.1930   13.9910 C.ar     90   G93       0.1744
   2855 C6         35.6580   45.9890   12.8390 C.2      90   G93       0.4770
   2856 O6         36.3740   47.0060   12.7250 O.2      90   G93      -0.5597
   2857 N1         34.9680   45.4680   11.7270 N.am     90   G93      -0.4787
   2858 C2         34.1580   44.3510   11.7600 C.2      90   G93       0.7657
   2859 N2         33.5490   44.0140   10.6280 N.pl3    90   G93      -0.9672
   2860 N3         33.9920   43.5960   12.8240 N.2      90   G93      -0.6323
   2861 C4         34.6310   44.0930   13.9120 C.ar     90   G93       0.1222
   2862 H5'        36.6770   40.0327   17.7660 H        90   G93       0.0679
   2863 H5''       35.8059   41.0280   18.9536 H        90   G93       0.0679
   2864 H4'        34.1367   40.1455   17.5551 H        90   G93       0.1174
   2865 H3'        36.0472   40.6721   15.2915 H        90   G93       0.0615
   2866 H2'        34.2676   41.2766   13.8439 H        90   G93       0.0972
   2867 H1'        32.8042   42.7191   15.6336 H        90   G93       0.2006
   2868 H8         35.5950   44.2095   16.9865 H        90   G93       0.1640
   2869 H1         35.0734   45.9455   10.8433 H        90   G93       0.3424
   2870 H21        33.6781   44.5756    9.7985 H        90   G93       0.4364
   2871 H22        32.9570   43.1962   10.5971 H        90   G93       0.4364
   2872 HO2'       32.7829   39.5841   14.4225 H        90   G93       0.4186
   2873 P          36.1490   38.0320   15.1760 P.3      91   U94       1.1662
   2874 OP1        35.9090   36.6610   15.7180 O.co2    91   U94      -0.7760
   2875 OP2        37.3990   38.7530   15.4980 O.co2    91   U94      -0.7760
   2876 O5'        36.0380   37.9960   13.5910 O.3      91   U94      -0.4989
   2877 C5'        34.9190   37.4570   12.9700 C.3      91   U94       0.0558
   2878 C4'        34.8540   37.9610   11.5630 C.3      91   U94       0.1065
   2879 O4'        34.9780   39.4020   11.5710 O.3      91   U94      -0.3548
   2880 C3'        35.9610   37.4380   10.6650 C.3      91   U94       0.2022
   2881 O3'        35.3970   36.8470    9.4890 O.3      91   U94      -0.5246
   2882 C2'        36.8110   38.6850   10.3610 C.3      91   U94       0.0670
   2883 O2'        37.3360   38.6750    9.0560 O.3      91   U94      -0.6139
   2884 C1'        35.8060   39.8090   10.5240 C.3      91   U94       0.0674
   2885 N1         36.4210   41.0980   10.9120 N.am     91   U94       0.0418
   2886 C2         36.5790   42.1030    9.9660 C.2      91   U94       0.4687
   2887 O2         36.2650   41.9840    8.7960 O.2      91   U94      -0.5477
   2888 N3         37.2030   43.2400   10.4310 N.am     91   U94      -0.3549
   2889 C4         37.6750   43.4630   11.7090 C.2      91   U94       0.5952
   2890 O4         38.1940   44.5310   11.9850 O.2      91   U94      -0.5761
   2891 C5         37.4500   42.3890   12.6380 C.2      91   U94      -0.3635
   2892 C6         36.8400   41.2740   12.2160 C.2      91   U94      -0.1126
   2893 H5'        34.9917   36.3694   12.9657 H        91   U94       0.0679
   2894 H5''       34.0211   37.7606   13.5083 H        91   U94       0.0679
   2895 H4'        33.8899   37.6899   11.1328 H        91   U94       0.1174
   2896 H3'        36.5591   36.7015   11.2017 H        91   U94       0.0615
   2897 H2'        37.6134   38.7846   11.0920 H        91   U94       0.0972
   2898 H1'        35.2248   39.9295    9.6098 H        91   U94       0.1824
   2899 H3         37.3284   43.9900    9.7663 H        91   U94       0.3154
   2900 H5         37.7696   42.4805   13.6656 H        91   U94       0.1811
   2901 H6         36.6684   40.4784   12.9259 H        91   U94       0.2188
   2902 HO2'       37.9692   37.9585    8.9708 H        91   U94       0.4186
   2903 P          35.1110   35.2740    9.4570 P.3      92   C95       1.1662
   2904 OP1        34.6560   34.9200    8.0890 O.co2    92   C95      -0.7760
   2905 OP2        34.2540   34.9360   10.6050 O.co2    92   C95      -0.7760
   2906 O5'        36.5620   34.6450    9.7380 O.3      92   C95      -0.4989
   2907 C5'        37.5140   34.4510    8.6850 C.3      92   C95       0.0558
   2908 C4'        38.6000   33.4830    9.1210 C.3      92   C95       0.1065
   2909 O4'        39.4630   34.1360   10.0770 O.3      92   C95      -0.3548
   2910 C3'        38.0990   32.2620    9.8490 C.3      92   C95       0.2022
   2911 O3'        37.7390   31.2840    8.9330 O.3      92   C95      -0.5246
   2912 C2'        39.3120   31.8570   10.6840 C.3      92   C95       0.0670
   2913 O2'        40.2400   31.0700    9.9760 O.3      92   C95      -0.6139
   2914 C1'        39.9200   33.2040   11.0470 C.3      92   C95       0.0066
   2915 N1         39.5260   33.6890   12.4450 N.am     92   C95      -0.0484
   2916 C2         40.0840   33.0760   13.5930 C.2      92   C95       0.7538
   2917 O2         40.9020   32.1630   13.4590 O.2      92   C95      -0.6252
   2918 N3         39.7160   33.5160   14.8290 N.2      92   C95      -0.7584
   2919 C4         38.8160   34.4940   14.9490 C.2      92   C95       0.8185
   2920 N4         38.4470   34.8560   16.1870 N.pl3    92   C95      -0.9530
   2921 C5         38.2130   35.1060   13.8010 C.2      92   C95      -0.5215
   2922 C6         38.6040   34.6900   12.5860 C.2      92   C95       0.0053
   2923 H5'        37.0039   34.0473    7.8104 H        92   C95       0.0679
   2924 H5''       37.9669   35.4085    8.4278 H        92   C95       0.0679
   2925 H4'        39.1840   33.1758    8.2534 H        92   C95       0.1174
   2926 H3'        37.2564   32.5160   10.4921 H        92   C95       0.0615
   2927 H2'        38.9895   31.3361   11.5855 H        92   C95       0.0972
   2928 H1'        41.0060   33.1321   10.9879 H        92   C95       0.2029
   2929 H5         37.4664   35.8787   13.9106 H        92   C95       0.1928
   2930 H6         38.1839   35.1531   11.7054 H        92   C95       0.1958
   2931 H41        38.8626   34.4058   16.9899 H        92   C95       0.4234
   2932 H42        37.7535   35.5788   16.3161 H        92   C95       0.4234
   2933 HO2'       40.2327   30.1753   10.3238 H        92   C95       0.4186
   2934 P          36.5440   30.2750    9.2550 P.3      93   U96       1.1662
   2935 OP1        36.3310   29.4550    8.0340 O.co2    93   U96      -0.7760
   2936 OP2        35.4130   31.0460    9.8260 O.co2    93   U96      -0.7760
   2937 O5'        37.1400   29.3590   10.4270 O.3      93   U96      -0.4989
   2938 C5'        38.1160   28.3760   10.1530 C.3      93   U96       0.0558
   2939 C4'        38.5880   27.7170   11.4350 C.3      93   U96       0.1065
   2940 O4'        39.2910   28.6930   12.2460 O.3      93   U96      -0.3548
   2941 C3'        37.4820   27.2210   12.3510 C.3      93   U96       0.2022
   2942 O3'        37.0250   25.9620   11.9600 O.3      93   U96      -0.5246
   2943 C2'        38.1830   27.1800   13.7010 C.3      93   U96       0.0670
   2944 O2'        38.9950   26.0350   13.8850 O.3      93   U96      -0.6139
   2945 C1'        39.0390   28.4340   13.6360 C.3      93   U96       0.0674
   2946 N1         38.3590   29.6350   14.2930 N.am     93   U96       0.0418
   2947 C2         38.3090   29.7170   15.6820 C.2      93   U96       0.4687
   2948 O2         38.8260   28.9050   16.4360 O.2      93   U96      -0.5477
   2949 N3         37.6340   30.8030   16.1620 N.am     93   U96      -0.3549
   2950 C4         37.0030   31.7880   15.4380 C.2      93   U96       0.5952
   2951 O4         36.4690   32.7160   16.0290 O.2      93   U96      -0.5761
   2952 C5         37.0620   31.6270   14.0110 C.2      93   U96      -0.3635
   2953 C6         37.7140   30.5770   13.5050 C.2      93   U96      -0.1126
   2954 H5'        37.6861   27.6179    9.4984 H        93   U96       0.0679
   2955 H5''       38.9657   28.8420    9.6541 H        93   U96       0.0679
   2956 H4'        39.2590   26.8923   11.1947 H        93   U96       0.1174
   2957 H3'        36.6581   27.9343   12.3724 H        93   U96       0.0615
   2958 H2'        37.4547   27.2607   14.5079 H        93   U96       0.0972
   2959 H1'        39.9869   28.2434   14.1393 H        93   U96       0.1824
   2960 H3         37.5933   30.8936   17.1671 H        93   U96       0.3154
   2961 H5         36.5865   32.3439   13.3581 H        93   U96       0.1811
   2962 H6         37.7403   30.4556   12.4322 H        93   U96       0.2188
   2963 HO2'       38.4408   25.2521   13.9240 H        93   U96       0.4186
   2964 P          35.4670   25.6230   12.0530 P.3      94   G97       1.1662
   2965 OP1        35.2630   24.3110   11.3900 O.co2    94   G97      -0.7760
   2966 OP2        34.7030   26.7990   11.5740 O.co2    94   G97      -0.7760
   2967 O5'        35.2220   25.4820   13.6320 O.3      94   G97      -0.4989
   2968 C5'        35.8020   24.4220   14.3470 C.3      94   G97       0.0558
   2969 C4'        35.6500   24.6240   15.8330 C.3      94   G97       0.1065
   2970 O4'        36.2390   25.8770   16.2010 O.3      94   G97      -0.3548
   2971 C3'        34.2330   24.7500   16.3320 C.3      94   G97       0.2022
   2972 O3'        33.6400   23.4830   16.4550 O.3      94   G97      -0.5246
   2973 C2'        34.4500   25.4260   17.6800 C.3      94   G97       0.0670
   2974 O2'        34.8710   24.5370   18.6950 O.3      94   G97      -0.6139
   2975 C1'        35.5840   26.3860   17.3500 C.3      94   G97       0.0191
   2976 N9         35.1450   27.7730   17.1100 N.ar     94   G97       0.0492
   2977 C8         35.0410   28.4330   15.8940 C.ar     94   G97       0.1374
   2978 N7         34.6710   29.6870   16.0090 N.ar     94   G97      -0.5709
   2979 C5         34.5000   29.8700   17.3900 C.ar     94   G97       0.1744
   2980 C6         34.0810   31.0240   18.1420 C.2      94   G97       0.4770
   2981 O6         33.7790   32.1590   17.7260 O.2      94   G97      -0.5597
   2982 N1         34.0220   30.7570   19.5130 N.am     94   G97      -0.4787
   2983 C2         34.3380   29.5450   20.0950 C.2      94   G97       0.7657
   2984 N2         34.2870   29.4960   21.4380 N.pl3    94   G97      -0.9672
   2985 N3         34.7120   28.4650   19.4130 N.2      94   G97      -0.6323
   2986 C4         34.7680   28.6930   18.0730 C.ar     94   G97       0.1222
   2987 H5'        35.3126   23.4906   14.0624 H        94   G97       0.0679
   2988 H5''       36.8619   24.3603   14.1000 H        94   G97       0.0679
   2989 H4'        36.1525   23.8154   16.3638 H        94   G97       0.1174
   2990 H3'        33.6465   25.3878   15.6707 H        94   G97       0.0615
   2991 H2'        33.5579   25.9713   17.9881 H        94   G97       0.0972
   2992 H1'        36.2906   26.3853   18.1800 H        94   G97       0.2006
   2993 H8         35.2448   27.9605   14.9445 H        94   G97       0.1640
   2994 H1         33.7264   31.5058   20.1230 H        94   G97       0.3424
   2995 H21        34.0161   30.3150   21.9633 H        94   G97       0.4364
   2996 H22        34.5196   28.6402   21.9213 H        94   G97       0.4364
   2997 HO2'       34.1577   23.9300   18.9055 H        94   G97       0.4186
   2998 P          32.0890   23.2620   16.0940 P.3      95   G98       1.1662
   2999 OP1        31.8970   21.8140   15.8160 O.co2    95   G98      -0.7760
   3000 OP2        31.6720   24.2580   15.0610 O.co2    95   G98      -0.7760
   3001 O5'        31.3890   23.6390   17.4850 O.3      95   G98      -0.4989
   3002 C5'        31.4090   22.7050   18.5430 C.3      95   G98       0.0558
   3003 C4'        30.9300   23.3160   19.8380 C.3      95   G98       0.1065
   3004 O4'        31.7250   24.4720   20.1430 O.3      95   G98      -0.3548
   3005 C3'        29.4980   23.8100   19.8330 C.3      95   G98       0.2022
   3006 O3'        28.6360   22.7640   20.1510 O.3      95   G98      -0.5246
   3007 C2'        29.5160   24.8630   20.9260 C.3      95   G98       0.0670
   3008 O2'        29.3490   24.3240   22.2230 O.3      95   G98      -0.6139
   3009 C1'        30.9160   25.4490   20.7710 C.3      95   G98       0.0191
   3010 N9         30.9470   26.6960   19.9900 N.ar     95   G98       0.0492
   3011 C8         31.0360   26.8350   18.6220 C.ar     95   G98       0.1374
   3012 N7         31.0540   28.0780   18.2300 N.ar     95   G98      -0.5709
   3013 C5         30.9100   28.8060   19.4050 C.ar     95   G98       0.1744
   3014 C6         30.8650   30.2140   19.6220 C.2      95   G98       0.4770
   3015 O6         30.8950   31.1250   18.7790 O.2      95   G98      -0.5597
   3016 N1         30.7700   30.5290   20.9860 N.am     95   G98      -0.4787
   3017 C2         30.6920   29.5950   22.0070 C.2      95   G98       0.7657
   3018 N2         30.5500   30.0700   23.2590 N.pl3    95   G98      -0.9672
   3019 N3         30.7230   28.2840   21.8090 N.2      95   G98      -0.6323
   3020 C4         30.8300   27.9630   20.4920 C.ar     95   G98       0.1222
   3021 H5'        30.7602   21.8675   18.2867 H        95   G98       0.0679
   3022 H5''       32.4271   22.3393   18.6765 H        95   G98       0.0679
   3023 H4'        31.0484   22.5852   20.6380 H        95   G98       0.1174
   3024 H3'        29.2397   24.2505   18.8700 H        95   G98       0.0615
   3025 H2'        28.7615   25.6253   20.7315 H        95   G98       0.0972
   3026 H1'        31.3205   25.6500   21.7630 H        95   G98       0.2006
   3027 H8         31.0859   25.9973   17.9421 H        95   G98       0.1640
   3028 H1         30.7576   31.5059   21.2420 H        95   G98       0.3424
   3029 H21        30.5151   31.0664   23.4202 H        95   G98       0.4364
   3030 H22        30.4784   29.4298   24.0369 H        95   G98       0.4364
   3031 HO2'       28.4650   23.9591   22.3070 H        95   G98       0.4186
   3032 P          27.3410   22.5000   19.2560 P.3      96   A99       1.1662
   3033 OP1        26.3730   23.5930   19.5240 O.co2    96   A99      -0.7760
   3034 OP2        26.9370   21.0800   19.4570 O.co2    96   A99      -0.7760
   3035 O5'        27.8950   22.6450   17.7650 O.3      96   A99      -0.4989
   3036 C5'        27.0670   22.3390   16.6830 C.3      96   A99       0.0558
   3037 C4'        26.8380   23.5640   15.8210 C.3      96   A99       0.1065
   3038 O4'        26.5100   24.7150   16.6440 O.3      96   A99      -0.3548
   3039 C3'        28.0170   23.9940   14.9580 C.3      96   A99       0.2022
   3040 O3'        27.5110   24.3790   13.6770 O.3      96   A99      -0.5246
   3041 C2'        28.5700   25.1980   15.7310 C.3      96   A99       0.0670
   3042 O2'        29.2560   26.0970   14.9000 O.3      96   A99      -0.6139
   3043 C1'        27.2770   25.8130   16.2160 C.3      96   A99       0.0394
   3044 N9         27.4090   26.7530   17.3230 N.ar     96   A99      -0.0251
   3045 C8         27.2590   26.4760   18.6530 C.ar     96   A99       0.2006
   3046 N7         27.3440   27.5270   19.4330 N.ar     96   A99      -0.6073
   3047 C5         27.4950   28.5770   18.5520 C.ar     96   A99       0.0515
   3048 C6         27.6170   29.9630   18.7490 C.ar     96   A99       0.7009
   3049 N6         27.6170   30.5330   19.9610 N.pl3    96   A99      -0.9019
   3050 N1         27.7410   30.7460   17.6500 N.ar     96   A99      -0.7615
   3051 C2         27.7570   30.1670   16.4410 C.ar     96   A99       0.5875
   3052 N3         27.6670   28.8750   16.1330 N.ar     96   A99      -0.6997
   3053 C4         27.5060   28.1260   17.2410 C.ar     96   A99       0.3053
   3054 H5'        27.5372   21.5611   16.0815 H        96   A99       0.0679
   3055 H5''       26.1086   21.9764   17.0547 H        96   A99       0.0679
   3056 H4'        25.9915   23.3637   15.1642 H        96   A99       0.1174
   3057 H3'        28.7589   23.2002   14.8718 H        96   A99       0.0615
   3058 H2'        29.1930   24.8785   16.5664 H        96   A99       0.0972
   3059 H1'        26.7740   26.3033   15.3825 H        96   A99       0.2007
   3060 H8         27.0856   25.4785   19.0289 H        96   A99       0.1553
   3061 H2         27.8565   30.8405   15.6026 H        96   A99       0.0473
   3062 HO2'       30.1774   25.8351   14.8361 H        96   A99       0.4186
   3063 H61        27.5258   29.9607   20.7882 H        96   A99       0.4115
   3064 H62        27.7082   31.5351   20.0478 H        96   A99       0.4115
   3065 P          27.9190   23.5770   12.3560 P.3      97   U100      1.1662
   3066 OP1        28.7600   22.4120   12.7510 O.co2    97   U100     -0.7760
   3067 OP2        28.4350   24.5760   11.3800 O.co2    97   U100     -0.7760
   3068 O5'        26.5130   23.0180   11.8140 O.3      97   U100     -0.4989
   3069 C5'        25.3990   23.8990   11.5690 C.3      97   U100      0.0558
   3070 C4'        24.1020   23.1080   11.3620 C.3      97   U100      0.1065
   3071 O4'        24.2780   22.0980   10.3210 O.3      97   U100     -0.3548
   3072 C3'        23.5820   22.3620   12.5940 C.3      97   U100      0.2022
   3073 O3'        22.1260   22.3620   12.6050 O.3      97   U100     -0.5246
   3074 C2'        24.1340   20.9530   12.3730 C.3      97   U100      0.0670
   3075 O2'        23.3850   19.9710   13.0660 O.3      97   U100     -0.6139
   3076 C1'        23.9630   20.8160   10.8500 C.3      97   U100      0.0674
   3077 N1         24.8550   19.7340   10.1710 N.am     97   U100      0.0418
   3078 C2         24.5360   18.3720   10.3160 C.2      97   U100      0.4687
   3079 O2         23.6080   17.9590   10.9990 O.2      97   U100     -0.5477
   3080 N3         25.3770   17.5030    9.6500 N.am     97   U100     -0.3549
   3081 C4         26.4700   17.8310    8.8580 C.2      97   U100      0.5952
   3082 O4         27.1280   16.9330    8.3270 O.2      97   U100     -0.5761
   3083 C5         26.7250   19.2560    8.7240 C.2      97   U100     -0.3635
   3084 C6         25.9190   20.1330    9.3550 C.2      97   U100     -0.1126
   3085 H5'        25.2771   24.5641   12.4239 H        97   U100      0.0679
   3086 H5''       25.6018   24.4938   10.6784 H        97   U100      0.0679
   3087 H4'        23.3289   23.8029   11.0341 H        97   U100      0.1174
   3088 H3'        23.9794   22.7976   13.5108 H        97   U100      0.0615
   3089 H2'        25.1871   20.9026   12.6498 H        97   U100      0.0972
   3090 H1'        22.9179   20.5948   10.6333 H        97   U100      0.1824
   3091 H3         25.1749   16.5185    9.7498 H        97   U100      0.3154
   3092 H5         27.5517   19.6083    8.1250 H        97   U100      0.1811
   3093 H6         26.1025   21.1893    9.2250 H        97   U100      0.2188
   3094 HO2'       23.0175   19.3454   12.4373 H        97   U100      0.4186
   3095 P          21.2840   23.4680   13.4320 P.3      98   G101      1.1662
   3096 OP1        19.8760   22.9910   13.5470 O.co2    98   G101     -0.7760
   3097 OP2        21.5650   24.7900   12.8210 O.co2    98   G101     -0.7760
   3098 O5'        21.9540   23.4510   14.8860 O.3      98   G101     -0.4989
   3099 C5'        21.6570   22.4130   15.8120 C.3      98   G101      0.0558
   3100 C4'        22.0720   22.8170   17.2150 C.3      98   G101      0.1065
   3101 O4'        23.3940   23.4230   17.1770 O.3      98   G101     -0.3548
   3102 C3'        21.1660   23.8540   17.8550 C.3      98   G101      0.2022
   3103 O3'        20.1210   23.2150   18.5800 O.3      98   G101     -0.5246
   3104 C2'        22.1080   24.6260   18.7710 C.3      98   G101      0.0670
   3105 O2'        22.2410   24.0540   20.0530 O.3      98   G101     -0.6139
   3106 C1'        23.4320   24.5700   18.0120 C.3      98   G101      0.0191
   3107 N9         23.6870   25.7730   17.2000 N.ar     98   G101      0.0492
   3108 C8         23.7480   25.8690   15.8230 C.ar     98   G101      0.1374
   3109 N7         24.0020   27.0780   15.3990 N.ar     98   G101     -0.5709
   3110 C5         24.0580   27.8420   16.5580 C.ar     98   G101      0.1744
   3111 C6         24.2610   29.2310   16.7280 C.2      98   G101      0.4770
   3112 O6         24.4510   30.0740   15.8570 O.2      98   G101     -0.5597
   3113 N1         24.2450   29.6150   18.0790 N.am     98   G101     -0.4787
   3114 C2         24.0710   28.7460   19.1360 C.2      98   G101      0.7657
   3115 N2         24.1190   29.2740   20.3680 N.pl3    98   G101     -0.9672
   3116 N3         23.8820   27.4380   18.9900 N.2      98   G101     -0.6323
   3117 C4         23.8860   27.0550   17.6750 C.ar     98   G101      0.1222
   3118 H5'        20.5851   22.2159   15.7980 H        98   G101      0.0679
   3119 H5''       22.1933   21.5089   15.5239 H        98   G101      0.0679
   3120 H4'        22.1033   21.9301   17.8479 H        98   G101      0.1174
   3121 H3'        20.7504   24.5152   17.0946 H        98   G101      0.0615
   3122 H2'        21.7746   25.6600   18.8592 H        98   G101      0.0972
   3123 H1'        24.2433   24.4537   18.7306 H        98   G101      0.2006
   3124 H8         23.6002   25.0274   15.1625 H        98   G101      0.1640
   3125 H1         24.3694   30.5946   18.2911 H        98   G101      0.3424
   3126 H21        24.2694   30.2656   20.4869 H        98   G101      0.4364
   3127 H22        24.0047   28.6800   21.1768 H        98   G101      0.4364
   3128 HO2'       21.7496   24.5776   20.6901 H        98   G101      0.4186
   3129 P          18.6230   23.8080   18.5390 P.3      99   A102      1.1662
   3130 OP1        17.7340   22.8540   19.2560 O.co2    99   A102     -0.7760
   3131 OP2        18.3070   24.1980   17.1260 O.co2    99   A102     -0.7760
   3132 O5'        18.7490   25.1390   19.4130 O.3      99   A102     -0.4989
   3133 C5'        19.0180   25.0440   20.8010 C.3      99   A102      0.0558
   3134 C4'        19.3000   26.4080   21.3860 C.3      99   A102      0.1065
   3135 O4'        20.5400   26.9200   20.8300 O.3      99   A102     -0.3548
   3136 C3'        18.2730   27.4730   21.0520 C.3      99   A102      0.2022
   3137 O3'        17.1800   27.4170   21.9550 O.3      99   A102     -0.5246
   3138 C2'        19.1010   28.7340   21.2240 C.3      99   A102      0.0670
   3139 O2'        19.3370   29.0440   22.5830 O.3      99   A102     -0.6139
   3140 C1'        20.4000   28.3080   20.5660 C.3      99   A102      0.0394
   3141 N9         20.4550   28.5490   19.1080 N.ar     99   A102     -0.0251
   3142 C8         20.3050   27.6210   18.0960 C.ar     99   A102      0.2006
   3143 N7         20.4750   28.1100   16.8840 N.ar     99   A102     -0.6073
   3144 C5         20.7730   29.4470   17.1100 C.ar     99   A102      0.0515
   3145 C6         21.0910   30.5100   16.2350 C.ar     99   A102      0.7009
   3146 N6         21.1530   30.3680   14.9110 N.pl3    99   A102     -0.9019
   3147 N1         21.3410   31.7280   16.7810 N.ar     99   A102     -0.7615
   3148 C2         21.3070   31.8600   18.1270 C.ar     99   A102      0.5875
   3149 N3         21.0440   30.9320   19.0520 N.ar     99   A102     -0.6997
   3150 C4         20.7740   29.7370   18.4760 C.ar     99   A102      0.3053
   3151 H5'        18.1532   24.6112   21.3039 H        99   A102      0.0679
   3152 H5''       19.8837   24.4002   20.9562 H        99   A102      0.0679
   3153 H4'        19.3960   26.3247   22.4686 H        99   A102      0.1174
   3154 H3'        17.9305   27.3717   20.0222 H        99   A102      0.0615
   3155 H2'        18.6506   29.5766   20.6994 H        99   A102      0.0972
   3156 H1'        21.2244   28.8401   21.0407 H        99   A102      0.2007
   3157 H8         20.0687   26.5837   18.2819 H        99   A102      0.1553
   3158 H2         21.5213   32.8487   18.5050 H        99   A102      0.0473
   3159 H61        20.9688   29.4684   14.4904 H        99   A102      0.4115
   3160 H62        21.3841   31.1600   14.3284 H        99   A102      0.4115
   3161 HO2'       18.8128   29.8087   22.8323 H        99   A102      0.4186
   3162 P          15.6780   27.6860   21.4390 P.3     100   G103      1.1662
   3163 OP1        14.7620   27.4770   22.5920 O.co2   100   G103     -0.7760
   3164 OP2        15.4630   26.9200   20.1750 O.co2   100   G103     -0.7760
   3165 O5'        15.6960   29.2470   21.0670 O.3     100   G103     -0.4989
   3166 C5'        15.8090   30.2430   22.0930 C.3     100   G103      0.0558
   3167 C4'        16.1610   31.5980   21.4980 C.3     100   G103      0.1065
   3168 O4'        17.3390   31.4780   20.6720 O.3     100   G103     -0.3548
   3169 C3'        15.1160   32.1890   20.5680 C.3     100   G103      0.2022
   3170 O3'        14.1370   32.8910   21.3220 O.3     100   G103     -0.5246
   3171 C2'        15.9540   33.1420   19.7240 C.3     100   G103      0.0670
   3172 O2'        16.2060   34.3610   20.3880 O.3     100   G103     -0.6139
   3173 C1'        17.2530   32.3690   19.5750 C.3     100   G103      0.0191
   3174 N9         17.3370   31.6130   18.3360 N.ar    100   G103      0.0492
   3175 C8         16.9590   30.3050   18.1360 C.ar    100   G103      0.1374
   3176 N7         17.1450   29.8900   16.9130 N.ar    100   G103     -0.5709
   3177 C5         17.6830   30.9910   16.2560 C.ar    100   G103      0.1744
   3178 C6         18.0550   31.1480   14.8950 C.2     100   G103      0.4770
   3179 O6         18.0410   30.2920   13.9980 O.2     100   G103     -0.5597
   3180 N1         18.5430   32.4370   14.6300 N.am    100   G103     -0.4787
   3181 C2         18.6570   33.4440   15.5760 C.2     100   G103      0.7657
   3182 N2         19.1640   34.6090   15.1480 N.pl3   100   G103     -0.9672
   3183 N3         18.2820   33.3160   16.8500 N.2     100   G103     -0.6323
   3184 C4         17.7970   32.0690   17.1170 C.ar    100   G103      0.1222
   3185 H5'        16.5903   29.9470   22.7930 H       100   G103      0.0679
   3186 H5''       14.8607   30.3198   22.6249 H       100   G103      0.0679
   3187 H4'        16.3606   32.3024   22.3055 H       100   G103      0.1174
   3188 H3'        14.6574   31.4167   19.9505 H       100   G103      0.0615
   3189 H2'        15.4893   33.3151   18.7533 H       100   G103      0.0972
   3190 H1'        18.0881   33.0680   19.6204 H       100   G103      0.2006
   3191 H8         16.5479   29.6818   18.9164 H       100   G103      0.1640
   3192 H1         18.8311   32.6454   13.6846 H       100   G103      0.3424
   3193 H21        19.4442   34.7138   14.1833 H       100   G103      0.4364
   3194 H22        19.2657   35.3818   15.7902 H       100   G103      0.4364
   3195 HO2'       15.3774   34.8226   20.5360 H       100   G103      0.4186
   3196 P          12.6180   32.9630   20.8230 P.3     101   A104      1.1662
   3197 OP1        11.7930   32.2030   21.7980 O.co2   101   A104     -0.7760
   3198 OP2        12.5650   32.6170   19.3790 O.co2   101   A104     -0.7760
   3199 O5'        12.2990   34.5150   20.9660 O.3     101   A104     -0.4989
   3200 C5'        12.5830   35.1840   22.1780 C.3     101   A104      0.0558
   3201 C4'        13.2320   36.5230   21.9080 C.3     101   A104      0.1065
   3202 O4'        14.4760   36.3130   21.2030 O.3     101   A104     -0.3548
   3203 C3'        12.4280   37.4470   21.0090 C.3     101   A104      0.2022
   3204 O3'        11.5150   38.1940   21.7730 O.3     101   A104     -0.5246
   3205 C2'        13.5020   38.3270   20.3850 C.3     101   A104      0.0670
   3206 O2'        13.8580   39.4190   21.2180 O.3     101   A104     -0.6139
   3207 C1'        14.6690   37.3360   20.2370 C.3     101   A104      0.0394
   3208 N9         14.7410   36.7100   18.9080 N.ar    101   A104     -0.0251
   3209 C8         13.8550   35.8190   18.3690 C.ar    101   A104      0.2006
   3210 N7         14.1560   35.4360   17.1560 N.ar    101   A104     -0.6073
   3211 C5         15.3280   36.1060   16.8810 C.ar    101   A104      0.0515
   3212 C6         16.1540   36.1300   15.7450 C.ar    101   A104      0.7009
   3213 N6         15.8790   35.4520   14.6370 N.pl3   101   A104     -0.9019
   3214 N1         17.2720   36.8770   15.7960 N.ar    101   A104     -0.7615
   3215 C2         17.5470   37.5540   16.9200 C.ar    101   A104      0.5875
   3216 N3         16.8330   37.6360   18.0400 N.ar    101   A104     -0.6997
   3217 C4         15.7200   36.8800   17.9560 C.ar    101   A104      0.3053
   3218 H5'        11.6543   35.3404   22.7267 H       101   A104      0.0679
   3219 H5''       13.2566   34.5719   22.7777 H       101   A104      0.0679
   3220 H4'        13.4332   37.0246   22.8546 H       101   A104      0.1174
   3221 H3'        11.9070   36.8757   20.2407 H       101   A104      0.0615
   3222 H2'        13.1800   38.6841   19.4068 H       101   A104      0.0972
   3223 H1'        15.6069   37.8520   20.4425 H       101   A104      0.2007
   3224 H8         12.9836   35.4631   18.8986 H       101   A104      0.1553
   3225 H2         18.4740   38.1081   16.9160 H       101   A104      0.0473
   3226 HO2'       14.0769   40.1790   20.6739 H       101   A104      0.4186
   3227 H61        16.1910   35.5964   13.6873 H       101   A104      0.4115
   3228 H62        15.2582   34.6656   14.7643 H       101   A104      0.4115
   3229 P           9.9480   37.8860   21.6720 P.3     102   G105      1.1662
   3230 OP1         9.2420   39.1970   21.7150 O.co2   102   G105     -0.7760
   3231 OP2         9.6400   36.8440   22.6810 O.co2   102   G105     -0.7760
   3232 O5'         9.7730   37.2140   20.2200 O.3     102   G105     -0.4989
   3233 C5'         9.0310   37.8660   19.1980 C.3     102   G105      0.0558
   3234 C4'         9.7880   37.8440   17.8890 C.3     102   G105      0.1065
   3235 O4'        10.7170   36.7460   17.8900 O.3     102   G105     -0.3548
   3236 C3'         8.9510   37.5920   16.6600 C.3     102   G105      0.2022
   3237 O3'         8.3410   38.7850   16.2320 O.3     102   G105     -0.5246
   3238 C2'        10.0010   37.0980   15.6660 C.3     102   G105      0.0670
   3239 O2'        10.7160   38.1410   15.0270 O.3     102   G105     -0.6139
   3240 C1'        10.9430   36.3210   16.5650 C.3     102   G105      0.0191
   3241 N9         10.7700   34.8820   16.4780 N.ar    102   G105      0.0492
   3242 C8         10.3020   34.0240   17.4480 C.ar    102   G105      0.1374
   3243 N7         10.2500   32.7800   17.0580 N.ar    102   G105     -0.5709
   3244 C5         10.6900   32.8250   15.7440 C.ar    102   G105      0.1744
   3245 C6         10.8620   31.7850   14.8040 C.2     102   G105      0.4770
   3246 O6         10.6750   30.5690   14.9680 O.2     102   G105     -0.5597
   3247 N1         11.3450   32.2670   13.5800 N.am    102   G105     -0.4787
   3248 C2         11.6370   33.5950   13.3220 C.2     102   G105      0.7657
   3249 N2         12.0620   33.9010   12.0910 N.pl3   102   G105     -0.9672
   3250 N3         11.5180   34.5580   14.2130 N.2     102   G105     -0.6323
   3251 C4         11.0420   34.1070   15.3910 C.ar    102   G105      0.1222
   3252 H5'         8.0769   37.3552   19.0678 H       102   G105      0.0679
   3253 H5''        8.8483   38.9000   19.4903 H       102   G105      0.0679
   3254 H4'        10.3336   38.7801   17.7701 H       102   G105      0.1174
   3255 H3'         8.2043   36.8212   16.8506 H       102   G105      0.0615
   3256 H2'         9.5468   36.4378   14.9271 H       102   G105      0.0972
   3257 H1'        11.9689   36.5662   16.2902 H       102   G105      0.2006
   3258 H8         10.0069   34.3489   18.4348 H       102   G105      0.1640
   3259 H1         11.4899   31.6000   12.8356 H       102   G105      0.3424
   3260 H21        12.1586   33.1753   11.3952 H       102   G105      0.4364
   3261 H22        12.2863   34.8577   11.8575 H       102   G105      0.4364
   3262 HO2'       11.3218   38.5445   15.6529 H       102   G105      0.4186
   3263 P           6.8920   38.7540   15.5430 P.3     103   A106      1.1662
   3264 OP1         6.3590   40.1420   15.5630 O.co2   103   A106     -0.7760
   3265 OP2         6.1000   37.6450   16.1460 O.co2   103   A106     -0.7760
   3266 O5'         7.2100   38.3350   14.0390 O.3     103   A106     -0.4989
   3267 C5'         8.1020   39.1000   13.2500 C.3     103   A106      0.0558
   3268 C4'         8.4410   38.3570   11.9820 C.3     103   A106      0.1065
   3269 O4'         9.2550   37.2040   12.2850 O.3     103   A106     -0.3548
   3270 C3'         7.2510   37.7590   11.2910 C.3     103   A106      0.2022
   3271 O3'         6.5380   38.7530   10.5730 O.3     103   A106     -0.5246
   3272 C2'         7.9040   36.6990   10.4050 C.3     103   A106      0.0670
   3273 O2'         8.4750   37.2240    9.2280 O.3     103   A106     -0.6139
   3274 C1'         8.9960   36.1840   11.3270 C.3     103   A106      0.0394
   3275 N9          8.6190   34.9720   12.0310 N.ar    103   A106     -0.0251
   3276 C8          8.1940   34.8720   13.3310 C.ar    103   A106      0.2006
   3277 N7          7.9770   33.6350   13.7270 N.ar    103   A106     -0.6073
   3278 C5          8.2600   32.8650   12.6020 C.ar    103   A106      0.0515
   3279 C6          8.2190   31.4610   12.3570 C.ar    103   A106      0.7009
   3280 N6          7.8520   30.5590   13.2820 N.pl3   103   A106     -0.9019
   3281 N1          8.5530   31.0260   11.1110 N.ar    103   A106     -0.7615
   3282 C2          8.8720   31.9370   10.1690 C.ar    103   A106      0.5875
   3283 N3          8.9910   33.2700   10.2880 N.ar    103   A106     -0.6997
   3284 C4          8.6530   33.6770   11.5390 C.ar    103   A106      0.3053
   3285 H5'         7.6336   40.0509   12.9961 H       103   A106      0.0679
   3286 H5''        9.0154   39.2864   13.8149 H       103   A106      0.0679
   3287 H4'         8.9738   39.0169   11.2973 H       103   A106      0.1174
   3288 H3'         6.5957   37.2834   12.0207 H       103   A106      0.0615
   3289 H2'         7.1949   35.9058   10.1679 H       103   A106      0.0972
   3290 H1'         9.8994   35.9972   10.7464 H       103   A106      0.2007
   3291 H8          8.0504   35.7296   13.9716 H       103   A106      0.1553
   3292 H2          9.0576   31.5398    9.1820 H       103   A106      0.0473
   3293 HO2'        8.0678   36.8116    8.4627 H       103   A106      0.4186
   3294 H61         8.1456   29.6415   12.9787 H       103   A106      0.4115
   3295 H62         7.3622   30.7647   14.1410 H       103   A106      0.4115
   3296 P           5.0390   38.4690   10.0900 P.3     104   A107      1.1662
   3297 OP1         4.3190   39.7630   10.0620 O.co2   104   A107     -0.7760
   3298 OP2         4.4870   37.3290   10.8710 O.co2   104   A107     -0.7760
   3299 O5'         5.3010   37.9820    8.5930 O.3     104   A107     -0.4989
   3300 C5'         4.3400   37.2400    7.9140 C.3     104   A107      0.0558
   3301 C4'         4.9870   36.2120    7.0060 C.3     104   A107      0.1065
   3302 O4'         6.1160   35.5720    7.6800 O.3     104   A107     -0.3548
   3303 C3'         4.0690   35.0620    6.6550 C.3     104   A107      0.2022
   3304 O3'         3.2180   35.4100    5.5880 O.3     104   A107     -0.5246
   3305 C2'         5.0560   33.9490    6.3250 C.3     104   A107      0.0670
   3306 O2'         5.6830   34.1080    5.0570 O.3     104   A107     -0.6139
   3307 C1'         6.0610   34.1610    7.4570 C.3     104   A107      0.0394
   3308 N9          5.6780   33.4940    8.7160 N.ar    104   A107     -0.0251
   3309 C8          5.2900   34.0920    9.8880 C.ar    104   A107      0.2006
   3310 N7          5.0590   33.2490   10.8660 N.ar    104   A107     -0.6073
   3311 C5          5.2790   32.0090   10.2940 C.ar    104   A107      0.0515
   3312 C6          5.1990   30.6910   10.8100 C.ar    104   A107      0.7009
   3313 N6          4.8320   30.4150   12.0660 N.pl3   104   A107     -0.9019
   3314 N1          5.4950   29.6660    9.9720 N.ar    104   A107     -0.7615
   3315 C2          5.8250   29.9440    8.6970 C.ar    104   A107      0.5875
   3316 N3          5.9520   31.1370    8.1030 N.ar    104   A107     -0.6997
   3317 C4          5.6490   32.1380    8.9610 C.ar    104   A107      0.3053
   3318 H5'         3.7301   37.9134    7.3118 H       104   A107      0.0679
   3319 H5''        3.7037   36.7299    8.6372 H       104   A107      0.0679
   3320 H4'         5.3327   36.6963    6.0927 H       104   A107      0.1174
   3321 H3'         3.4754   34.7837    7.5258 H       104   A107      0.0615
   3322 H2'         4.5809   32.9712    6.4044 H       104   A107      0.0972
   3323 H1'         7.0420   33.8052    7.1422 H       104   A107      0.2007
   3324 H8          5.1842   35.1614    9.9958 H       104   A107      0.1553
   3325 H2          6.0131   29.0873    8.0669 H       104   A107      0.0473
   3326 H61         5.1959   29.4921   12.2557 H       104   A107      0.4115
   3327 H62         4.3029   31.0047   12.6924 H       104   A107      0.4115
   3328 HO2'        5.0366   33.9712    4.3605 H       104   A107      0.4186
   3329 P           1.6340   35.2690    5.7820 P.3     105   G108      1.1662
   3330 OP1         0.9990   35.9320    4.6100 O.co2   105   G108     -0.7760
   3331 OP2         1.2860   35.7110    7.1600 O.co2   105   G108     -0.7760
   3332 O5'         1.4120   33.6660    5.7060 O.3     105   G108     -0.4989
   3333 C5'         1.6760   32.9730    4.4790 C.3     105   G108      0.0558
   3334 C4'         1.9570   31.4910    4.6910 C.3     105   G108      0.1065
   3335 O4'         2.8350   31.2720    5.8170 O.3     105   G108     -0.3548
   3336 C3'         0.7740   30.6290    5.0480 C.3     105   G108      0.2022
   3337 O3'        -0.1090   30.4470    3.9440 O.3     105   G108     -0.5246
   3338 C2'         1.4900   29.3430    5.4570 C.3     105   G108      0.0670
   3339 O2'         1.9510   28.5730    4.3540 O.3     105   G108     -0.6139
   3340 C1'         2.6770   29.9140    6.2380 C.3     105   G108      0.0191
   3341 N9          2.4800   29.8640    7.6870 N.ar    105   G108      0.0492
   3342 C8          2.2960   30.9300    8.5430 C.ar    105   G108      0.1374
   3343 N7          2.1460   30.5760    9.7930 N.ar    105   G108     -0.5709
   3344 C5          2.2300   29.1850    9.7670 C.ar    105   G108      0.1744
   3345 C6          2.1620   28.2390   10.8320 C.2     105   G108      0.4770
   3346 O6          1.9910   28.4600   12.0390 O.2     105   G108     -0.5597
   3347 N1          2.2860   26.9170   10.3710 N.am    105   G108     -0.4787
   3348 C2          2.4540   26.5560    9.0440 C.2     105   G108      0.7657
   3349 N2          2.5370   25.2350    8.7880 N.pl3   105   G108     -0.9672
   3350 N3          2.5650   27.4370    8.0420 N.2     105   G108     -0.6323
   3351 C4          2.4270   28.7290    8.4740 C.ar    105   G108      0.1222
   3352 H5'         2.5438   33.4277    4.0013 H       105   G108      0.0679
   3353 H5''        0.8139   33.0788    3.8205 H       105   G108      0.0679
   3354 H4'         2.4277   31.0895    3.7936 H       105   G108      0.1174
   3355 H3'         0.2380   31.0522    5.8975 H       105   G108      0.0615
   3356 H2'         0.8560   28.7407    6.1077 H       105   G108      0.0972
   3357 H1'         3.5760   29.3539    5.9807 H       105   G108      0.2006
   3358 H8          2.2776   31.9581    8.2127 H       105   G108      0.1640
   3359 H1          2.2500   26.1765   11.0569 H       105   G108      0.3424
   3360 H21         2.4650   24.5686    9.5436 H       105   G108      0.4364
   3361 H22         2.6712   24.9117    7.8406 H       105   G108      0.4364
   3362 HO2'        1.6896   27.6567    4.4712 H       105   G108      0.4186
   3363 P          -1.6890   30.2780    4.2170 P.3     106   A109      1.1662
   3364 OP1        -2.3830   30.4110    2.9120 O.co2   106   A109     -0.7760
   3365 OP2        -2.0690   31.1680    5.3480 O.co2   106   A109     -0.7760
   3366 O5'        -1.8140   28.7580    4.7380 O.3     106   A109     -0.4989
   3367 C5'        -1.5390   27.6620    3.8560 C.3     106   A109      0.0558
   3368 C4'        -1.3120   26.3720    4.6310 C.3     106   A109      0.1065
   3369 O4'        -0.3510   26.5980    5.6880 O.3     106   A109     -0.3548
   3370 C3'        -2.5310   25.8280    5.3540 C.3     106   A109      0.2022
   3371 O3'        -3.3600   25.0810    4.4670 O.3     106   A109     -0.5246
   3372 C2'        -1.9040   24.9550    6.4380 C.3     106   A109      0.0670
   3373 O2'        -1.5640   23.6550    5.9870 O.3     106   A109     -0.6139
   3374 C1'        -0.6460   25.7550    6.7950 C.3     106   A109      0.0394
   3375 N9         -0.8040   26.5820    7.9950 N.ar    106   A109     -0.0251
   3376 C8         -0.9240   27.9500    8.0570 C.ar    106   A109      0.2006
   3377 N7         -1.0630   28.4180    9.2770 N.ar    106   A109     -0.6073
   3378 C5         -1.0410   27.2830   10.0750 C.ar    106   A109      0.0515
   3379 C6         -1.1270   27.0900   11.4830 C.ar    106   A109      0.7009
   3380 N6         -1.2940   28.0900   12.3590 N.pl3   106   A109     -0.9019
   3381 N1         -1.0670   25.8170   11.9510 N.ar    106   A109     -0.7615
   3382 C2         -0.9600   24.8050   11.0700 C.ar    106   A109      0.5875
   3383 N3         -0.8260   24.8620    9.7360 N.ar    106   A109     -0.6997
   3384 C4         -0.8930   26.1400    9.2970 C.ar    106   A109      0.3053
   3385 H5'        -2.3855   27.5273    3.1827 H       106   A109      0.0679
   3386 H5''       -0.6483   27.8889    3.2701 H       106   A109      0.0679
   3387 H4'        -0.9272   25.6097    3.9535 H       106   A109      0.1174
   3388 H3'        -3.0977   26.6425    5.8053 H       106   A109      0.0615
   3389 H2'        -2.5672   24.8923    7.3007 H       106   A109      0.0972
   3390 H1'         0.1834   25.0641    6.9464 H       106   A109      0.2007
   3391 H8         -0.9057   28.5829    7.1821 H       106   A109      0.1553
   3392 H2         -0.9855   23.8122   11.4944 H       106   A109      0.0473
   3393 H61        -1.0210   27.5414   13.1618 H       106   A109      0.4115
   3394 H62        -1.5882   29.0505   12.2539 H       106   A109      0.4115
   3395 HO2'       -2.3644   23.1718    5.7692 H       106   A109      0.4186
   3396 P          -4.9560   25.1950    4.5900 P.3     107   U110      1.1662
   3397 OP1        -5.5440   24.3770    3.4960 O.co2   107   U110     -0.7760
   3398 OP2        -5.3120   26.6350    4.7070 O.co2   107   U110     -0.7760
   3399 O5'        -5.2600   24.4900    6.0100 O.3     107   U110     -0.4989
   3400 C5'        -5.2370   23.0610    6.1110 C.3     107   U110      0.0558
   3401 C4'        -5.2320   22.5870    7.5560 C.3     107   U110      0.1065
   3402 O4'        -4.2080   23.2740    8.3140 O.3     107   U110     -0.3548
   3403 C3'        -6.4920   22.8560    8.3490 C.3     107   U110      0.2022
   3404 O3'        -7.5250   21.9320    7.9970 O.3     107   U110     -0.5246
   3405 C2'        -5.9800   22.6500    9.7780 C.3     107   U110      0.0670
   3406 O2'        -5.8880   21.2830   10.1550 O.3     107   U110     -0.6139
   3407 C1'        -4.5780   23.2760    9.6960 C.3     107   U110      0.0674
   3408 N1         -4.5170   24.7040   10.2480 N.am    107   U110      0.0418
   3409 C2         -4.4770   24.9080   11.6360 C.2     107   U110      0.4687
   3410 O2         -4.4510   23.9980   12.4570 O.2     107   U110     -0.5477
   3411 N3         -4.4600   26.2360   12.0260 N.am    107   U110     -0.3549
   3412 C4         -4.4800   27.3540   11.1970 C.2     107   U110      0.5952
   3413 O4         -4.4600   28.4780   11.6920 O.2     107   U110     -0.5761
   3414 C5         -4.5340   27.0650    9.7780 C.2     107   U110     -0.3635
   3415 C6         -4.5600   25.7840    9.3670 C.2     107   U110     -0.1126
   3416 H5'        -4.3398   22.6887    5.6165 H       107   U110      0.0679
   3417 H5''       -6.1143   22.6553    5.6073 H       107   U110      0.0679
   3418 H4'        -5.0258   21.5169    7.5749 H       107   U110      0.1174
   3419 H3'        -6.8272   23.8829    8.2037 H       107   U110      0.0615
   3420 H2'        -6.6003   23.1987   10.4867 H       107   U110      0.0972
   3421 H1'        -3.8781   22.6514   10.2511 H       107   U110      0.1824
   3422 H3         -4.4298   26.4130   13.0199 H       107   U110      0.3154
   3423 H5         -4.5532   27.8695    9.0577 H       107   U110      0.1811
   3424 H6         -4.6167   25.5833    8.3073 H       107   U110      0.2188
   3425 HO2'       -6.4350   21.1263   10.9282 H       107   U110      0.4186
   3426 P          -9.0580   22.4200    7.9180 P.3     108   U111      1.1662
   3427 OP1        -9.8410   21.3210    7.2920 O.co2   108   U111     -0.7760
   3428 OP2        -9.0840   23.7770    7.3080 O.co2   108   U111     -0.7760
   3429 O5'        -9.4740   22.5610    9.4770 O.3     108   U111     -0.4989
   3430 C5'        -9.9670   21.4150   10.2190 C.3     108   U111      0.0558
   3431 C4'        -9.6980   21.5410   11.7190 C.3     108   U111      0.1065
   3432 O4'        -8.4580   22.2600   11.9360 O.3     108   U111     -0.3548
   3433 C3'       -10.7510   22.3140   12.5110 C.3     108   U111      0.2022
   3434 O3'       -11.8230   21.4380   12.9390 O.3     108   U111     -0.5246
   3435 C2'        -9.9510   22.8550   13.7030 C.3     108   U111      0.0670
   3436 O2'        -9.9130   21.9660   14.8090 O.3     108   U111     -0.6139
   3437 C1'        -8.5480   23.0550   13.1160 C.3     108   U111      0.0674
   3438 N1         -8.2210   24.5210   12.7890 N.am    108   U111      0.0418
   3439 C2         -7.8530   25.3920   13.8210 C.2     108   U111      0.4687
   3440 O2         -7.7570   25.0530   14.9930 O.2     108   U111     -0.5477
   3441 N3         -7.6110   26.6920   13.4210 N.am    108   U111     -0.3549
   3442 C4         -7.6980   27.2030   12.1300 C.2     108   U111      0.5952
   3443 O4         -7.4360   28.3830   11.9270 O.2     108   U111     -0.5761
   3444 C5         -8.0800   26.2460   11.1140 C.2     108   U111     -0.3635
   3445 C6         -8.3330   24.9750   11.4730 C.2     108   U111     -0.1126
   3446 H5'       -11.0421   21.3303   10.0609 H       108   U111      0.0679
   3447 H5''       -9.4808   20.5138    9.8453 H       108   U111      0.0679
   3448 H4'        -9.6031   20.5416   12.1437 H       108   U111      0.1174
   3449 H3'       -11.1472   23.1360   11.9148 H       108   U111      0.0615
   3450 H2'       -10.3600   23.8156   14.0160 H       108   U111      0.0972
   3451 H1'        -7.8161   22.6895   13.8363 H       108   U111      0.1824
   3452 H3         -7.3414   27.3426   14.1450 H       108   U111      0.3154
   3453 H5         -8.1609   26.5487   10.0805 H       108   U111      0.1811
   3454 H6         -8.6364   24.2740   10.7095 H       108   U111      0.2188
   3455 HO2'      -10.1523   22.4395   15.6091 H       108   U111      0.4186
   3456 P         -13.3050   22.0170   13.2080 P.3     109   C112      1.1662
   3457 OP1       -14.1760   20.8610   13.5440 O.co2   109   C112     -0.7760
   3458 OP2       -13.6680   22.9090   12.0710 O.co2   109   C112     -0.7760
   3459 O5'       -13.1150   22.9420   14.5180 O.3     109   C112     -0.4989
   3460 C5'       -13.7880   22.6410   15.7560 C.3     109   C112      0.0558
   3461 C4'       -12.8610   22.8370   16.9590 C.3     109   C112      0.1065
   3462 O4'       -11.7110   23.6430   16.5910 O.3     109   C112     -0.3548
   3463 C3'       -13.4890   23.5210   18.1730 C.3     109   C112      0.2022
   3464 O3'       -12.9890   22.9370   19.3840 O.3     109   C112     -0.6541
   3465 C2'       -13.0710   24.9950   18.0220 C.3     109   C112      0.0670
   3466 O2'       -12.8510   25.6330   19.2710 O.3     109   C112     -0.6139
   3467 C1'       -11.7570   24.9100   17.2370 C.3     109   C112      0.0066
   3468 N1        -11.5770   26.0180   16.1910 N.am    109   C112     -0.0484
   3469 C2        -11.0950   27.2910   16.5800 C.2     109   C112      0.7538
   3470 O2        -10.8620   27.5180   17.7780 O.2     109   C112     -0.6252
   3471 N3        -10.9100   28.2480   15.6200 N.2     109   C112     -0.7584
   3472 C4        -11.1820   27.9760   14.3310 C.2     109   C112      0.8185
   3473 N4        -10.9930   28.9470   13.4320 N.pl3   109   C112     -0.9530
   3474 C5        -11.6720   26.6960   13.9160 C.2     109   C112     -0.5215
   3475 C6        -11.8590   25.7620   14.8660 C.2     109   C112      0.0053
   3476 H5'       -14.1248   21.6046   15.7333 H       109   C112      0.0679
   3477 H5''      -14.6531   23.2957   15.8609 H       109   C112      0.0679
   3478 H4'       -12.5009   21.8569   17.2717 H       109   C112      0.1174
   3479 H3'       -14.5747   23.4327   18.1339 H       109   C112      0.0615
   3480 H2'       -13.8185   25.5413   17.4467 H       109   C112      0.0972
   3481 H1'       -10.9293   24.9662   17.9440 H       109   C112      0.2029
   3482 H5        -11.8838   26.4879   12.8776 H       109   C112      0.1928
   3483 H6        -12.2382   24.7907   14.5846 H       109   C112      0.1958
   3484 H41       -10.6515   29.8501   13.7284 H       109   C112      0.4234
   3485 H42       -11.1917   28.7776   12.4563 H       109   C112      0.4234
   3486 HO2'      -12.0254   26.1220   19.2401 H       109   C112      0.4186
   3487 HO3'      -13.3895   23.3735   20.1394 H       109   C112      0.4376
@<TRIPOS>BOND
     1    1    2 1
     2    2    3 1
     3    3    5 1
     4    3    4 1
     5    4    9 1
     6    5    7 1
     7    5    6 1
     8    7    9 1
     9    7    8 1
    10    9   10 1
    11   10   20 ar
    12   10   11 ar
    13   11   12 ar
    14   12   13 ar
    15   13   20 ar
    16   13   14 1
    17   14   15 2
    18   14   16 am
    19   16   17 1
    20   17   18 2
    21   17   19 2
    22   19   20 1
    23   33   35 1
    24   33   34 1
    25   33   36 1
    26   36   37 1
    27   37   38 1
    28   38   40 1
    29   38   39 1
    30   39   44 1
    31   40   41 1
    32   40   42 1
    33   42   43 1
    34   42   44 1
    35   44   45 1
    36   45   46 ar
    37   45   55 ar
    38   46   47 ar
    39   47   48 ar
    40   48   55 ar
    41   48   49 1
    42   49   50 2
    43   49   51 am
    44   51   52 1
    45   52   53 2
    46   52   54 2
    47   54   55 1
    48   33    6 1
    49   67   69 1
    50   67   70 1
    51   67   68 1
    52   70   71 1
    53   71   72 1
    54   72   74 1
    55   72   73 1
    56   73   78 1
    57   74   75 1
    58   74   76 1
    59   76   77 1
    60   76   78 1
    61   78   79 1
    62   79   88 ar
    63   79   80 ar
    64   80   81 ar
    65   81   82 ar
    66   82   83 ar
    67   82   88 ar
    68   83   84 1
    69   83   85 ar
    70   85   86 ar
    71   86   87 ar
    72   87   88 ar
    73   41   67 1
    74  100  101 1
    75  100  102 1
    76  100  103 1
    77  103  104 1
    78  104  105 1
    79  105  107 1
    80  105  106 1
    81  106  111 1
    82  107  109 1
    83  107  108 1
    84  109  110 1
    85  109  111 1
    86  111  112 1
    87  112  113 am
    88  112  119 1
    89  113  114 2
    90  113  115 am
    91  115  116 am
    92  116  118 1
    93  116  117 2
    94  118  119 2
    95   75  100 1
    96  130  131 1
    97  130  132 1
    98  130  133 1
    99  133  134 1
   100  134  135 1
   101  135  137 1
   102  135  136 1
   103  136  141 1
   104  137  139 1
   105  137  138 1
   106  139  140 1
   107  139  141 1
   108  141  142 1
   109  142  143 am
   110  142  149 1
   111  143  145 1
   112  143  144 2
   113  145  146 2
   114  146  148 2
   115  146  147 2
   116  148  149 2
   117  108  130 1
   118  161  162 1
   119  161  163 1
   120  161  164 1
   121  164  165 1
   122  165  166 1
   123  166  168 1
   124  166  167 1
   125  167  172 1
   126  168  170 1
   127  168  169 1
   128  170  171 1
   129  170  172 1
   130  172  173 1
   131  173  174 am
   132  173  180 1
   133  174  175 2
   134  174  176 am
   135  176  177 am
   136  177  179 1
   137  177  178 2
   138  179  180 2
   139  138  161 1
   140  191  192 1
   141  191  193 1
   142  191  194 1
   143  194  195 1
   144  195  196 1
   145  196  198 1
   146  196  197 1
   147  197  202 1
   148  198  200 1
   149  198  199 1
   150  200  201 1
   151  200  202 1
   152  202  203 1
   153  203  204 am
   154  203  210 1
   155  204  205 2
   156  204  206 am
   157  206  207 am
   158  207  209 1
   159  207  208 2
   160  209  210 2
   161  169  191 1
   162  221  222 1
   163  221  223 1
   164  221  224 1
   165  224  225 1
   166  225  226 1
   167  226  228 1
   168  226  227 1
   169  227  232 1
   170  228  230 1
   171  228  229 1
   172  230  231 1
   173  230  232 1
   174  232  233 1
   175  233  234 am
   176  233  240 1
   177  234  236 1
   178  234  235 2
   179  236  237 2
   180  237  239 2
   181  237  238 2
   182  239  240 2
   183  199  221 1
   184  252  254 1
   185  252  253 1
   186  252  255 1
   187  255  256 1
   188  256  257 1
   189  257  259 1
   190  257  258 1
   191  258  263 1
   192  259  260 1
   193  259  261 1
   194  261  262 1
   195  261  263 1
   196  263  264 1
   197  264  265 ar
   198  264  274 ar
   199  265  266 ar
   200  266  267 ar
   201  267  274 ar
   202  267  268 1
   203  268  269 2
   204  268  270 am
   205  270  271 1
   206  271  272 2
   207  271  273 2
   208  273  274 1
   209  229  252 1
   210  286  288 1
   211  286  287 1
   212  286  289 1
   213  289  290 1
   214  290  291 1
   215  291  293 1
   216  291  292 1
   217  292  297 1
   218  293  294 1
   219  293  295 1
   220  295  296 1
   221  295  297 1
   222  297  298 1
   223  298  299 ar
   224  298  308 ar
   225  299  300 ar
   226  300  301 ar
   227  301  308 ar
   228  301  302 1
   229  302  303 2
   230  302  304 am
   231  304  305 1
   232  305  306 2
   233  305  307 2
   234  307  308 1
   235  260  286 1
   236  320  322 1
   237  320  321 1
   238  320  323 1
   239  323  324 1
   240  324  325 1
   241  325  327 1
   242  325  326 1
   243  326  331 1
   244  327  328 1
   245  327  329 1
   246  329  330 1
   247  329  331 1
   248  331  332 1
   249  332  333 ar
   250  332  342 ar
   251  333  334 ar
   252  334  335 ar
   253  335  342 ar
   254  335  336 1
   255  336  337 2
   256  336  338 am
   257  338  339 1
   258  339  340 2
   259  339  341 2
   260  341  342 1
   261  294  320 1
   262  354  356 1
   263  354  355 1
   264  354  357 1
   265  357  358 1
   266  358  359 1
   267  359  361 1
   268  359  360 1
   269  360  365 1
   270  361  362 1
   271  361  363 1
   272  363  364 1
   273  363  365 1
   274  365  366 1
   275  366  367 ar
   276  366  376 ar
   277  367  368 ar
   278  368  369 ar
   279  369  376 ar
   280  369  370 1
   281  370  371 2
   282  370  372 am
   283  372  373 1
   284  373  374 2
   285  373  375 2
   286  375  376 1
   287  328  354 1
   288  388  389 1
   289  388  390 1
   290  388  391 1
   291  391  392 1
   292  392  393 1
   293  393  395 1
   294  393  394 1
   295  394  399 1
   296  395  397 1
   297  395  396 1
   298  397  398 1
   299  397  399 1
   300  399  400 1
   301  400  401 am
   302  400  407 1
   303  401  403 1
   304  401  402 2
   305  403  404 2
   306  404  406 2
   307  404  405 2
   308  406  407 2
   309  362  388 1
   310  419  421 1
   311  419  422 1
   312  419  420 1
   313  422  423 1
   314  423  424 1
   315  424  426 1
   316  424  425 1
   317  425  430 1
   318  426  427 1
   319  426  428 1
   320  428  429 1
   321  428  430 1
   322  430  431 1
   323  431  440 ar
   324  431  432 ar
   325  432  433 ar
   326  433  434 ar
   327  434  435 ar
   328  434  440 ar
   329  435  436 1
   330  435  437 ar
   331  437  438 ar
   332  438  439 ar
   333  439  440 ar
   334  396  419 1
   335  452  454 1
   336  452  453 1
   337  452  455 1
   338  455  456 1
   339  456  457 1
   340  457  459 1
   341  457  458 1
   342  458  463 1
   343  459  460 1
   344  459  461 1
   345  461  462 1
   346  461  463 1
   347  463  464 1
   348  464  465 ar
   349  464  474 ar
   350  465  466 ar
   351  466  467 ar
   352  467  474 ar
   353  467  468 1
   354  468  469 2
   355  468  470 am
   356  470  471 1
   357  471  472 2
   358  471  473 2
   359  473  474 1
   360  427  452 1
   361  486  488 1
   362  486  487 1
   363  486  489 1
   364  489  490 1
   365  490  491 1
   366  491  493 1
   367  491  492 1
   368  492  497 1
   369  493  494 1
   370  493  495 1
   371  495  496 1
   372  495  497 1
   373  497  498 1
   374  498  499 ar
   375  498  508 ar
   376  499  500 ar
   377  500  501 ar
   378  501  508 ar
   379  501  502 1
   380  502  503 2
   381  502  504 am
   382  504  505 1
   383  505  506 2
   384  505  507 2
   385  507  508 1
   386  460  486 1
   387  520  522 1
   388  520  521 1
   389  520  523 1
   390  523  524 1
   391  524  525 1
   392  525  527 1
   393  525  526 1
   394  526  531 1
   395  527  528 1
   396  527  529 1
   397  529  530 1
   398  529  531 1
   399  531  532 1
   400  532  533 ar
   401  532  542 ar
   402  533  534 ar
   403  534  535 ar
   404  535  542 ar
   405  535  536 1
   406  536  537 2
   407  536  538 am
   408  538  539 1
   409  539  540 2
   410  539  541 2
   411  541  542 1
   412  494  520 1
   413  554  555 1
   414  554  556 1
   415  554  557 1
   416  557  558 1
   417  558  559 1
   418  559  561 1
   419  559  560 1
   420  560  565 1
   421  561  563 1
   422  561  562 1
   423  563  564 1
   424  563  565 1
   425  565  566 1
   426  566  567 am
   427  566  573 1
   428  567  568 2
   429  567  569 am
   430  569  570 am
   431  570  572 1
   432  570  571 2
   433  572  573 2
   434  528  554 1
   435  584  586 1
   436  584  585 1
   437  584  587 1
   438  587  588 1
   439  588  589 1
   440  589  591 1
   441  589  590 1
   442  590  595 1
   443  591  592 1
   444  591  593 1
   445  593  594 1
   446  593  595 1
   447  595  596 1
   448  596  597 ar
   449  596  606 ar
   450  597  598 ar
   451  598  599 ar
   452  599  606 ar
   453  599  600 1
   454  600  601 2
   455  600  602 am
   456  602  603 1
   457  603  604 2
   458  603  605 2
   459  605  606 1
   460  562  584 1
   461  618  620 1
   462  618  621 1
   463  618  619 1
   464  621  622 1
   465  622  623 1
   466  623  625 1
   467  623  624 1
   468  624  629 1
   469  625  626 1
   470  625  627 1
   471  627  628 1
   472  627  629 1
   473  629  630 1
   474  630  639 ar
   475  630  631 ar
   476  631  632 ar
   477  632  633 ar
   478  633  634 ar
   479  633  639 ar
   480  634  635 1
   481  634  636 ar
   482  636  637 ar
   483  637  638 ar
   484  638  639 ar
   485  592  618 1
   486  651  653 1
   487  651  654 1
   488  651  652 1
   489  654  655 1
   490  655  656 1
   491  656  658 1
   492  656  657 1
   493  657  662 1
   494  658  659 1
   495  658  660 1
   496  660  661 1
   497  660  662 1
   498  662  663 1
   499  663  672 ar
   500  663  664 ar
   501  664  665 ar
   502  665  666 ar
   503  666  667 ar
   504  666  672 ar
   505  667  668 1
   506  667  669 ar
   507  669  670 ar
   508  670  671 ar
   509  671  672 ar
   510  626  651 1
   511  684  686 1
   512  684  687 1
   513  684  685 1
   514  687  688 1
   515  688  689 1
   516  689  691 1
   517  689  690 1
   518  690  695 1
   519  691  692 1
   520  691  693 1
   521  693  694 1
   522  693  695 1
   523  695  696 1
   524  696  705 ar
   525  696  697 ar
   526  697  698 ar
   527  698  699 ar
   528  699  700 ar
   529  699  705 ar
   530  700  701 1
   531  700  702 ar
   532  702  703 ar
   533  703  704 ar
   534  704  705 ar
   535  659  684 1
   536  717  718 1
   537  717  719 1
   538  717  720 1
   539  720  721 1
   540  721  722 1
   541  722  724 1
   542  722  723 1
   543  723  728 1
   544  724  726 1
   545  724  725 1
   546  726  727 1
   547  726  728 1
   548  728  729 1
   549  729  730 am
   550  729  736 1
   551  730  731 2
   552  730  732 am
   553  732  733 am
   554  733  735 1
   555  733  734 2
   556  735  736 2
   557  692  717 1
   558  747  748 1
   559  747  749 1
   560  747  750 1
   561  750  751 1
   562  751  752 1
   563  752  754 1
   564  752  753 1
   565  753  758 1
   566  754  756 1
   567  754  755 1
   568  756  757 1
   569  756  758 1
   570  758  759 1
   571  759  760 am
   572  759  766 1
   573  760  761 2
   574  760  762 am
   575  762  763 am
   576  763  765 1
   577  763  764 2
   578  765  766 2
   579  725  747 1
   580  777  778 1
   581  777  779 1
   582  777  780 1
   583  780  781 1
   584  781  782 1
   585  782  784 1
   586  782  783 1
   587  783  788 1
   588  784  786 1
   589  784  785 1
   590  786  787 1
   591  786  788 1
   592  788  789 1
   593  789  790 am
   594  789  796 1
   595  790  792 1
   596  790  791 2
   597  792  793 2
   598  793  795 2
   599  793  794 2
   600  795  796 2
   601  755  777 1
   602  808  809 1
   603  808  810 1
   604  808  811 1
   605  811  812 1
   606  812  813 1
   607  813  815 1
   608  813  814 1
   609  814  819 1
   610  815  817 1
   611  815  816 1
   612  817  818 1
   613  817  819 1
   614  819  820 1
   615  820  821 am
   616  820  827 1
   617  821  823 1
   618  821  822 2
   619  823  824 2
   620  824  826 2
   621  824  825 2
   622  826  827 2
   623  785  808 1
   624  839  840 1
   625  839  841 1
   626  839  842 1
   627  842  843 1
   628  843  844 1
   629  844  846 1
   630  844  845 1
   631  845  850 1
   632  846  848 1
   633  846  847 1
   634  848  849 1
   635  848  850 1
   636  850  851 1
   637  851  852 am
   638  851  858 1
   639  852  854 1
   640  852  853 2
   641  854  855 2
   642  855  857 2
   643  855  856 2
   644  857  858 2
   645  816  839 1
   646  870  872 1
   647  870  871 1
   648  870  873 1
   649  873  874 1
   650  874  875 1
   651  875  877 1
   652  875  876 1
   653  876  881 1
   654  877  878 1
   655  877  879 1
   656  879  880 1
   657  879  881 1
   658  881  882 1
   659  882  883 ar
   660  882  892 ar
   661  883  884 ar
   662  884  885 ar
   663  885  892 ar
   664  885  886 1
   665  886  887 2
   666  886  888 am
   667  888  889 1
   668  889  890 2
   669  889  891 2
   670  891  892 1
   671  847  870 1
   672  904  906 1
   673  904  907 1
   674  904  905 1
   675  907  908 1
   676  908  909 1
   677  909  911 1
   678  909  910 1
   679  910  915 1
   680  911  912 1
   681  911  913 1
   682  913  914 1
   683  913  915 1
   684  915  916 1
   685  916  925 ar
   686  916  917 ar
   687  917  918 ar
   688  918  919 ar
   689  919  920 ar
   690  919  925 ar
   691  920  921 1
   692  920  922 ar
   693  922  923 ar
   694  923  924 ar
   695  924  925 ar
   696  878  904 1
   697  937  938 1
   698  937  939 1
   699  937  940 1
   700  940  941 1
   701  941  942 1
   702  942  944 1
   703  942  943 1
   704  943  948 1
   705  944  946 1
   706  944  945 1
   707  946  947 1
   708  946  948 1
   709  948  949 1
   710  949  950 am
   711  949  956 1
   712  950  952 1
   713  950  951 2
   714  952  953 2
   715  953  955 2
   716  953  954 2
   717  955  956 2
   718  912  937 1
   719  968  969 1
   720  968  970 1
   721  968  971 1
   722  971  972 1
   723  972  973 1
   724  973  975 1
   725  973  974 1
   726  974  979 1
   727  975  977 1
   728  975  976 1
   729  977  978 1
   730  977  979 1
   731  979  980 1
   732  980  981 am
   733  980  987 1
   734  981  983 1
   735  981  982 2
   736  983  984 2
   737  984  986 2
   738  984  985 2
   739  986  987 2
   740  945  968 1
   741  999 1001 1
   742  999 1000 1
   743  999 1002 1
   744 1002 1003 1
   745 1003 1004 1
   746 1004 1006 1
   747 1004 1005 1
   748 1005 1010 1
   749 1006 1007 1
   750 1006 1008 1
   751 1008 1009 1
   752 1008 1010 1
   753 1010 1011 1
   754 1011 1012 ar
   755 1011 1021 ar
   756 1012 1013 ar
   757 1013 1014 ar
   758 1014 1021 ar
   759 1014 1015 1
   760 1015 1016 2
   761 1015 1017 am
   762 1017 1018 1
   763 1018 1019 2
   764 1018 1020 2
   765 1020 1021 1
   766  976  999 1
   767 1033 1035 1
   768 1033 1034 1
   769 1033 1036 1
   770 1036 1037 1
   771 1037 1038 1
   772 1038 1040 1
   773 1038 1039 1
   774 1039 1044 1
   775 1040 1041 1
   776 1040 1042 1
   777 1042 1043 1
   778 1042 1044 1
   779 1044 1045 1
   780 1045 1046 ar
   781 1045 1055 ar
   782 1046 1047 ar
   783 1047 1048 ar
   784 1048 1055 ar
   785 1048 1049 1
   786 1049 1050 2
   787 1049 1051 am
   788 1051 1052 1
   789 1052 1053 2
   790 1052 1054 2
   791 1054 1055 1
   792 1007 1033 1
   793 1067 1068 1
   794 1067 1069 1
   795 1067 1070 1
   796 1070 1071 1
   797 1071 1072 1
   798 1072 1074 1
   799 1072 1073 1
   800 1073 1078 1
   801 1074 1076 1
   802 1074 1075 1
   803 1076 1077 1
   804 1076 1078 1
   805 1078 1079 1
   806 1079 1080 am
   807 1079 1086 1
   808 1080 1081 2
   809 1080 1082 am
   810 1082 1083 am
   811 1083 1085 1
   812 1083 1084 2
   813 1085 1086 2
   814 1041 1067 1
   815 1097 1099 1
   816 1097 1098 1
   817 1097 1100 1
   818 1100 1101 1
   819 1101 1102 1
   820 1102 1104 1
   821 1102 1103 1
   822 1103 1108 1
   823 1104 1105 1
   824 1104 1106 1
   825 1106 1107 1
   826 1106 1108 1
   827 1108 1109 1
   828 1109 1110 ar
   829 1109 1119 ar
   830 1110 1111 ar
   831 1111 1112 ar
   832 1112 1119 ar
   833 1112 1113 1
   834 1113 1114 2
   835 1113 1115 am
   836 1115 1116 1
   837 1116 1117 2
   838 1116 1118 2
   839 1118 1119 1
   840 1075 1097 1
   841 1131 1133 1
   842 1131 1132 1
   843 1131 1134 1
   844 1134 1135 1
   845 1135 1136 1
   846 1136 1138 1
   847 1136 1137 1
   848 1137 1142 1
   849 1138 1139 1
   850 1138 1140 1
   851 1140 1141 1
   852 1140 1142 1
   853 1142 1143 1
   854 1143 1144 ar
   855 1143 1153 ar
   856 1144 1145 ar
   857 1145 1146 ar
   858 1146 1153 ar
   859 1146 1147 1
   860 1147 1148 2
   861 1147 1149 am
   862 1149 1150 1
   863 1150 1151 2
   864 1150 1152 2
   865 1152 1153 1
   866 1105 1131 1
   867 1165 1166 1
   868 1165 1167 1
   869 1165 1168 1
   870 1168 1169 1
   871 1169 1170 1
   872 1170 1172 1
   873 1170 1171 1
   874 1171 1176 1
   875 1172 1174 1
   876 1172 1173 1
   877 1174 1175 1
   878 1174 1176 1
   879 1176 1177 1
   880 1177 1178 am
   881 1177 1184 1
   882 1178 1179 2
   883 1178 1180 am
   884 1180 1181 am
   885 1181 1183 1
   886 1181 1182 2
   887 1183 1184 2
   888 1139 1165 1
   889 1195 1197 1
   890 1195 1198 1
   891 1195 1196 1
   892 1198 1199 1
   893 1199 1200 1
   894 1200 1202 1
   895 1200 1201 1
   896 1201 1206 1
   897 1202 1203 1
   898 1202 1204 1
   899 1204 1205 1
   900 1204 1206 1
   901 1206 1207 1
   902 1207 1216 ar
   903 1207 1208 ar
   904 1208 1209 ar
   905 1209 1210 ar
   906 1210 1211 ar
   907 1210 1216 ar
   908 1211 1212 1
   909 1211 1213 ar
   910 1213 1214 ar
   911 1214 1215 ar
   912 1215 1216 ar
   913 1173 1195 1
   914 1228 1229 1
   915 1228 1230 1
   916 1228 1231 1
   917 1231 1232 1
   918 1232 1233 1
   919 1233 1235 1
   920 1233 1234 1
   921 1234 1239 1
   922 1235 1237 1
   923 1235 1236 1
   924 1237 1238 1
   925 1237 1239 1
   926 1239 1240 1
   927 1240 1241 am
   928 1240 1247 1
   929 1241 1242 2
   930 1241 1243 am
   931 1243 1244 am
   932 1244 1246 1
   933 1244 1245 2
   934 1246 1247 2
   935 1203 1228 1
   936 1258 1260 1
   937 1258 1261 1
   938 1258 1259 1
   939 1261 1262 1
   940 1262 1263 1
   941 1263 1265 1
   942 1263 1264 1
   943 1264 1269 1
   944 1265 1266 1
   945 1265 1267 1
   946 1267 1268 1
   947 1267 1269 1
   948 1269 1270 1
   949 1270 1279 ar
   950 1270 1271 ar
   951 1271 1272 ar
   952 1272 1273 ar
   953 1273 1274 ar
   954 1273 1279 ar
   955 1274 1275 1
   956 1274 1276 ar
   957 1276 1277 ar
   958 1277 1278 ar
   959 1278 1279 ar
   960 1236 1258 1
   961 1291 1293 1
   962 1291 1292 1
   963 1291 1294 1
   964 1294 1295 1
   965 1295 1296 1
   966 1296 1298 1
   967 1296 1297 1
   968 1297 1302 1
   969 1298 1299 1
   970 1298 1300 1
   971 1300 1301 1
   972 1300 1302 1
   973 1302 1303 1
   974 1303 1304 ar
   975 1303 1313 ar
   976 1304 1305 ar
   977 1305 1306 ar
   978 1306 1313 ar
   979 1306 1307 1
   980 1307 1308 2
   981 1307 1309 am
   982 1309 1310 1
   983 1310 1311 2
   984 1310 1312 2
   985 1312 1313 1
   986 1266 1291 1
   987 1325 1326 1
   988 1325 1327 1
   989 1325 1328 1
   990 1328 1329 1
   991 1329 1330 1
   992 1330 1332 1
   993 1330 1331 1
   994 1331 1336 1
   995 1332 1334 1
   996 1332 1333 1
   997 1334 1335 1
   998 1334 1336 1
   999 1336 1337 1
  1000 1337 1338 am
  1001 1337 1344 1
  1002 1338 1339 2
  1003 1338 1340 am
  1004 1340 1341 am
  1005 1341 1343 1
  1006 1341 1342 2
  1007 1343 1344 2
  1008 1299 1325 1
  1009 1355 1356 1
  1010 1355 1357 1
  1011 1355 1358 1
  1012 1358 1359 1
  1013 1359 1360 1
  1014 1360 1362 1
  1015 1360 1361 1
  1016 1361 1366 1
  1017 1362 1364 1
  1018 1362 1363 1
  1019 1364 1365 1
  1020 1364 1366 1
  1021 1366 1367 1
  1022 1367 1368 am
  1023 1367 1374 1
  1024 1368 1370 1
  1025 1368 1369 2
  1026 1370 1371 2
  1027 1371 1373 2
  1028 1371 1372 2
  1029 1373 1374 2
  1030 1333 1355 1
  1031 1386 1387 1
  1032 1386 1388 1
  1033 1386 1389 1
  1034 1389 1390 1
  1035 1390 1391 1
  1036 1391 1393 1
  1037 1391 1392 1
  1038 1392 1397 1
  1039 1393 1395 1
  1040 1393 1394 1
  1041 1395 1396 1
  1042 1395 1397 1
  1043 1397 1398 1
  1044 1398 1399 am
  1045 1398 1405 1
  1046 1399 1401 1
  1047 1399 1400 2
  1048 1401 1402 2
  1049 1402 1404 2
  1050 1402 1403 2
  1051 1404 1405 2
  1052 1363 1386 1
  1053 1417 1419 1
  1054 1417 1420 1
  1055 1417 1418 1
  1056 1420 1421 1
  1057 1421 1422 1
  1058 1422 1424 1
  1059 1422 1423 1
  1060 1423 1428 1
  1061 1424 1425 1
  1062 1424 1426 1
  1063 1426 1427 1
  1064 1426 1428 1
  1065 1428 1429 1
  1066 1429 1438 ar
  1067 1429 1430 ar
  1068 1430 1431 ar
  1069 1431 1432 ar
  1070 1432 1433 ar
  1071 1432 1438 ar
  1072 1433 1434 1
  1073 1433 1435 ar
  1074 1435 1436 ar
  1075 1436 1437 ar
  1076 1437 1438 ar
  1077 1394 1417 1
  1078 1450 1451 1
  1079 1450 1452 1
  1080 1450 1453 1
  1081 1453 1454 1
  1082 1454 1455 1
  1083 1455 1457 1
  1084 1455 1456 1
  1085 1456 1461 1
  1086 1457 1459 1
  1087 1457 1458 1
  1088 1459 1460 1
  1089 1459 1461 1
  1090 1461 1462 1
  1091 1462 1463 am
  1092 1462 1469 1
  1093 1463 1465 1
  1094 1463 1464 2
  1095 1465 1466 2
  1096 1466 1468 2
  1097 1466 1467 2
  1098 1468 1469 2
  1099 1425 1450 1
  1100 1481 1483 1
  1101 1481 1482 1
  1102 1481 1484 1
  1103 1484 1485 1
  1104 1485 1486 1
  1105 1486 1488 1
  1106 1486 1487 1
  1107 1487 1492 1
  1108 1488 1489 1
  1109 1488 1490 1
  1110 1490 1491 1
  1111 1490 1492 1
  1112 1492 1493 1
  1113 1493 1494 ar
  1114 1493 1503 ar
  1115 1494 1495 ar
  1116 1495 1496 ar
  1117 1496 1503 ar
  1118 1496 1497 1
  1119 1497 1498 2
  1120 1497 1499 am
  1121 1499 1500 1
  1122 1500 1501 2
  1123 1500 1502 2
  1124 1502 1503 1
  1125 1458 1481 1
  1126 1515 1517 1
  1127 1515 1518 1
  1128 1515 1516 1
  1129 1518 1519 1
  1130 1519 1520 1
  1131 1520 1522 1
  1132 1520 1521 1
  1133 1521 1526 1
  1134 1522 1523 1
  1135 1522 1524 1
  1136 1524 1525 1
  1137 1524 1526 1
  1138 1526 1527 1
  1139 1527 1536 ar
  1140 1527 1528 ar
  1141 1528 1529 ar
  1142 1529 1530 ar
  1143 1530 1531 ar
  1144 1530 1536 ar
  1145 1531 1532 1
  1146 1531 1533 ar
  1147 1533 1534 ar
  1148 1534 1535 ar
  1149 1535 1536 ar
  1150 1489 1515 1
  1151 1548 1550 1
  1152 1548 1551 1
  1153 1548 1549 1
  1154 1551 1552 1
  1155 1552 1553 1
  1156 1553 1555 1
  1157 1553 1554 1
  1158 1554 1559 1
  1159 1555 1556 1
  1160 1555 1557 1
  1161 1557 1558 1
  1162 1557 1559 1
  1163 1559 1560 1
  1164 1560 1569 ar
  1165 1560 1561 ar
  1166 1561 1562 ar
  1167 1562 1563 ar
  1168 1563 1564 ar
  1169 1563 1569 ar
  1170 1564 1565 1
  1171 1564 1566 ar
  1172 1566 1567 ar
  1173 1567 1568 ar
  1174 1568 1569 ar
  1175 1523 1548 1
  1176 1581 1583 1
  1177 1581 1584 1
  1178 1581 1582 1
  1179 1584 1585 1
  1180 1585 1586 1
  1181 1586 1588 1
  1182 1586 1587 1
  1183 1587 1592 1
  1184 1588 1589 1
  1185 1588 1590 1
  1186 1590 1591 1
  1187 1590 1592 1
  1188 1592 1593 1
  1189 1593 1602 ar
  1190 1593 1594 ar
  1191 1594 1595 ar
  1192 1595 1596 ar
  1193 1596 1597 ar
  1194 1596 1602 ar
  1195 1597 1598 1
  1196 1597 1599 ar
  1197 1599 1600 ar
  1198 1600 1601 ar
  1199 1601 1602 ar
  1200 1556 1581 1
  1201 1614 1616 1
  1202 1614 1615 1
  1203 1614 1617 1
  1204 1617 1618 1
  1205 1618 1619 1
  1206 1619 1621 1
  1207 1619 1620 1
  1208 1620 1625 1
  1209 1621 1622 1
  1210 1621 1623 1
  1211 1623 1624 1
  1212 1623 1625 1
  1213 1625 1626 1
  1214 1626 1627 ar
  1215 1626 1636 ar
  1216 1627 1628 ar
  1217 1628 1629 ar
  1218 1629 1636 ar
  1219 1629 1630 1
  1220 1630 1631 2
  1221 1630 1632 am
  1222 1632 1633 1
  1223 1633 1634 2
  1224 1633 1635 2
  1225 1635 1636 1
  1226 1589 1614 1
  1227 1648 1649 1
  1228 1648 1650 1
  1229 1648 1651 1
  1230 1651 1652 1
  1231 1652 1653 1
  1232 1653 1655 1
  1233 1653 1654 1
  1234 1654 1659 1
  1235 1655 1657 1
  1236 1655 1656 1
  1237 1657 1658 1
  1238 1657 1659 1
  1239 1659 1660 1
  1240 1660 1661 am
  1241 1660 1667 1
  1242 1661 1663 1
  1243 1661 1662 2
  1244 1663 1664 2
  1245 1664 1666 2
  1246 1664 1665 2
  1247 1666 1667 2
  1248 1622 1648 1
  1249 1682 1683 1
  1250 1679 1680 1
  1251 1679 1681 1
  1252 1679 1682 1
  1253 1656 1679 1
  1254 1687 1688 1
  1255 1688 1689 1
  1256 1689 1691 1
  1257 1689 1690 1
  1258 1690 1695 1
  1259 1691 1693 1
  1260 1691 1692 1
  1261 1693 1695 1
  1262 1693 1694 1
  1263 1695 1696 1
  1264 1696 1706 ar
  1265 1696 1697 ar
  1266 1697 1698 ar
  1267 1698 1699 ar
  1268 1699 1706 ar
  1269 1699 1700 1
  1270 1700 1701 2
  1271 1700 1702 am
  1272 1702 1703 1
  1273 1703 1704 2
  1274 1703 1705 2
  1275 1705 1706 1
  1276 1719 1720 1
  1277 1719 1721 1
  1278 1719 1722 1
  1279 1722 1723 1
  1280 1723 1724 1
  1281 1724 1726 1
  1282 1724 1725 1
  1283 1725 1730 1
  1284 1726 1728 1
  1285 1726 1727 1
  1286 1728 1729 1
  1287 1728 1730 1
  1288 1730 1731 1
  1289 1731 1732 am
  1290 1731 1738 1
  1291 1732 1734 1
  1292 1732 1733 2
  1293 1734 1735 2
  1294 1735 1737 2
  1295 1735 1736 2
  1296 1737 1738 2
  1297 1719 1692 1
  1298 1750 1751 1
  1299 1750 1752 1
  1300 1750 1753 1
  1301 1753 1754 1
  1302 1754 1755 1
  1303 1755 1757 1
  1304 1755 1756 1
  1305 1756 1761 1
  1306 1757 1759 1
  1307 1757 1758 1
  1308 1759 1760 1
  1309 1759 1761 1
  1310 1761 1762 1
  1311 1762 1763 am
  1312 1762 1769 1
  1313 1763 1764 2
  1314 1763 1765 am
  1315 1765 1766 am
  1316 1766 1768 1
  1317 1766 1767 2
  1318 1768 1769 2
  1319 1727 1750 1
  1320 1780 1781 1
  1321 1780 1782 1
  1322 1780 1783 1
  1323 1783 1784 1
  1324 1784 1785 1
  1325 1785 1787 1
  1326 1785 1786 1
  1327 1786 1791 1
  1328 1787 1789 1
  1329 1787 1788 1
  1330 1789 1790 1
  1331 1789 1791 1
  1332 1791 1792 1
  1333 1792 1793 am
  1334 1792 1799 1
  1335 1793 1794 2
  1336 1793 1795 am
  1337 1795 1796 am
  1338 1796 1798 1
  1339 1796 1797 2
  1340 1798 1799 2
  1341 1758 1780 1
  1342 1810 1811 1
  1343 1810 1812 1
  1344 1810 1813 1
  1345 1813 1814 1
  1346 1814 1815 1
  1347 1815 1817 1
  1348 1815 1816 1
  1349 1816 1821 1
  1350 1817 1819 1
  1351 1817 1818 1
  1352 1819 1820 1
  1353 1819 1821 1
  1354 1821 1822 1
  1355 1822 1823 am
  1356 1822 1829 1
  1357 1823 1824 2
  1358 1823 1825 am
  1359 1825 1826 am
  1360 1826 1828 1
  1361 1826 1827 2
  1362 1828 1829 2
  1363 1788 1810 1
  1364 1840 1842 1
  1365 1840 1841 1
  1366 1840 1843 1
  1367 1843 1844 1
  1368 1844 1845 1
  1369 1845 1847 1
  1370 1845 1846 1
  1371 1846 1851 1
  1372 1847 1848 1
  1373 1847 1849 1
  1374 1849 1850 1
  1375 1849 1851 1
  1376 1851 1852 1
  1377 1852 1853 ar
  1378 1852 1862 ar
  1379 1853 1854 ar
  1380 1854 1855 ar
  1381 1855 1862 ar
  1382 1855 1856 1
  1383 1856 1857 2
  1384 1856 1858 am
  1385 1858 1859 1
  1386 1859 1860 2
  1387 1859 1861 2
  1388 1861 1862 1
  1389 1818 1840 1
  1390 1874 1876 1
  1391 1874 1877 1
  1392 1874 1875 1
  1393 1877 1878 1
  1394 1878 1879 1
  1395 1879 1881 1
  1396 1879 1880 1
  1397 1880 1885 1
  1398 1881 1882 1
  1399 1881 1883 1
  1400 1883 1884 1
  1401 1883 1885 1
  1402 1885 1886 1
  1403 1886 1895 ar
  1404 1886 1887 ar
  1405 1887 1888 ar
  1406 1888 1889 ar
  1407 1889 1890 ar
  1408 1889 1895 ar
  1409 1890 1891 1
  1410 1890 1892 ar
  1411 1892 1893 ar
  1412 1893 1894 ar
  1413 1894 1895 ar
  1414 1848 1874 1
  1415 1907 1908 1
  1416 1907 1909 1
  1417 1907 1910 1
  1418 1910 1911 1
  1419 1911 1912 1
  1420 1912 1914 1
  1421 1912 1913 1
  1422 1913 1918 1
  1423 1914 1916 1
  1424 1914 1915 1
  1425 1916 1917 1
  1426 1916 1918 1
  1427 1918 1919 1
  1428 1919 1920 am
  1429 1919 1926 1
  1430 1920 1921 2
  1431 1920 1922 am
  1432 1922 1923 am
  1433 1923 1925 1
  1434 1923 1924 2
  1435 1925 1926 2
  1436 1882 1907 1
  1437 1937 1938 1
  1438 1937 1939 1
  1439 1937 1940 1
  1440 1940 1941 1
  1441 1941 1942 1
  1442 1942 1944 1
  1443 1942 1943 1
  1444 1943 1948 1
  1445 1944 1946 1
  1446 1944 1945 1
  1447 1946 1947 1
  1448 1946 1948 1
  1449 1948 1949 1
  1450 1949 1950 am
  1451 1949 1956 1
  1452 1950 1951 2
  1453 1950 1952 am
  1454 1952 1953 am
  1455 1953 1955 1
  1456 1953 1954 2
  1457 1955 1956 2
  1458 1915 1937 1
  1459 1967 1968 1
  1460 1967 1969 1
  1461 1967 1970 1
  1462 1970 1971 1
  1463 1971 1972 1
  1464 1972 1974 1
  1465 1972 1973 1
  1466 1973 1978 1
  1467 1974 1976 1
  1468 1974 1975 1
  1469 1976 1977 1
  1470 1976 1978 1
  1471 1978 1979 1
  1472 1979 1980 am
  1473 1979 1986 1
  1474 1980 1981 2
  1475 1980 1982 am
  1476 1982 1983 am
  1477 1983 1985 1
  1478 1983 1984 2
  1479 1985 1986 2
  1480 1945 1967 1
  1481 1997 1999 1
  1482 1997 1998 1
  1483 1997 2000 1
  1484 2000 2001 1
  1485 2001 2002 1
  1486 2002 2004 1
  1487 2002 2003 1
  1488 2003 2008 1
  1489 2004 2005 1
  1490 2004 2006 1
  1491 2006 2007 1
  1492 2006 2008 1
  1493 2008 2009 1
  1494 2009 2010 ar
  1495 2009 2019 ar
  1496 2010 2011 ar
  1497 2011 2012 ar
  1498 2012 2019 ar
  1499 2012 2013 1
  1500 2013 2014 2
  1501 2013 2015 am
  1502 2015 2016 1
  1503 2016 2017 2
  1504 2016 2018 2
  1505 2018 2019 1
  1506 1975 1997 1
  1507 2031 2033 1
  1508 2031 2032 1
  1509 2031 2034 1
  1510 2034 2035 1
  1511 2035 2036 1
  1512 2036 2038 1
  1513 2036 2037 1
  1514 2037 2042 1
  1515 2038 2039 1
  1516 2038 2040 1
  1517 2040 2041 1
  1518 2040 2042 1
  1519 2042 2043 1
  1520 2043 2044 ar
  1521 2043 2053 ar
  1522 2044 2045 ar
  1523 2045 2046 ar
  1524 2046 2053 ar
  1525 2046 2047 1
  1526 2047 2048 2
  1527 2047 2049 am
  1528 2049 2050 1
  1529 2050 2051 2
  1530 2050 2052 2
  1531 2052 2053 1
  1532 2005 2031 1
  1533 2065 2066 1
  1534 2065 2067 1
  1535 2065 2068 1
  1536 2068 2069 1
  1537 2069 2070 1
  1538 2070 2072 1
  1539 2070 2071 1
  1540 2071 2076 1
  1541 2072 2074 1
  1542 2072 2073 1
  1543 2074 2075 1
  1544 2074 2076 1
  1545 2076 2077 1
  1546 2077 2078 am
  1547 2077 2084 1
  1548 2078 2079 2
  1549 2078 2080 am
  1550 2080 2081 am
  1551 2081 2083 1
  1552 2081 2082 2
  1553 2083 2084 2
  1554 2039 2065 1
  1555 2095 2097 1
  1556 2095 2096 1
  1557 2095 2098 1
  1558 2098 2099 1
  1559 2099 2100 1
  1560 2100 2102 1
  1561 2100 2101 1
  1562 2101 2106 1
  1563 2102 2103 1
  1564 2102 2104 1
  1565 2104 2105 1
  1566 2104 2106 1
  1567 2106 2107 1
  1568 2107 2108 ar
  1569 2107 2117 ar
  1570 2108 2109 ar
  1571 2109 2110 ar
  1572 2110 2117 ar
  1573 2110 2111 1
  1574 2111 2112 2
  1575 2111 2113 am
  1576 2113 2114 1
  1577 2114 2115 2
  1578 2114 2116 2
  1579 2116 2117 1
  1580 2073 2095 1
  1581 2129 2131 1
  1582 2129 2132 1
  1583 2129 2130 1
  1584 2132 2133 1
  1585 2133 2134 1
  1586 2134 2136 1
  1587 2134 2135 1
  1588 2135 2140 1
  1589 2136 2137 1
  1590 2136 2138 1
  1591 2138 2139 1
  1592 2138 2140 1
  1593 2140 2141 1
  1594 2141 2150 ar
  1595 2141 2142 ar
  1596 2142 2143 ar
  1597 2143 2144 ar
  1598 2144 2145 ar
  1599 2144 2150 ar
  1600 2145 2146 1
  1601 2145 2147 ar
  1602 2147 2148 ar
  1603 2148 2149 ar
  1604 2149 2150 ar
  1605 2103 2129 1
  1606 2162 2164 1
  1607 2162 2165 1
  1608 2162 2163 1
  1609 2165 2166 1
  1610 2166 2167 1
  1611 2167 2169 1
  1612 2167 2168 1
  1613 2168 2173 1
  1614 2169 2170 1
  1615 2169 2171 1
  1616 2171 2172 1
  1617 2171 2173 1
  1618 2173 2174 1
  1619 2174 2183 ar
  1620 2174 2175 ar
  1621 2175 2176 ar
  1622 2176 2177 ar
  1623 2177 2178 ar
  1624 2177 2183 ar
  1625 2178 2179 1
  1626 2178 2180 ar
  1627 2180 2181 ar
  1628 2181 2182 ar
  1629 2182 2183 ar
  1630 2137 2162 1
  1631 2195 2197 1
  1632 2195 2198 1
  1633 2195 2196 1
  1634 2198 2199 1
  1635 2199 2200 1
  1636 2200 2202 1
  1637 2200 2201 1
  1638 2201 2206 1
  1639 2202 2203 1
  1640 2202 2204 1
  1641 2204 2205 1
  1642 2204 2206 1
  1643 2206 2207 1
  1644 2207 2216 ar
  1645 2207 2208 ar
  1646 2208 2209 ar
  1647 2209 2210 ar
  1648 2210 2211 ar
  1649 2210 2216 ar
  1650 2211 2212 1
  1651 2211 2213 ar
  1652 2213 2214 ar
  1653 2214 2215 ar
  1654 2215 2216 ar
  1655 2170 2195 1
  1656 2228 2229 1
  1657 2228 2230 1
  1658 2228 2231 1
  1659 2231 2232 1
  1660 2232 2233 1
  1661 2233 2235 1
  1662 2233 2234 1
  1663 2234 2239 1
  1664 2235 2237 1
  1665 2235 2236 1
  1666 2237 2238 1
  1667 2237 2239 1
  1668 2239 2240 1
  1669 2240 2241 am
  1670 2240 2247 1
  1671 2241 2242 2
  1672 2241 2243 am
  1673 2243 2244 am
  1674 2244 2246 1
  1675 2244 2245 2
  1676 2246 2247 2
  1677 2203 2228 1
  1678 2258 2259 1
  1679 2258 2260 1
  1680 2258 2261 1
  1681 2261 2262 1
  1682 2262 2263 1
  1683 2263 2265 1
  1684 2263 2264 1
  1685 2264 2269 1
  1686 2265 2267 1
  1687 2265 2266 1
  1688 2267 2268 1
  1689 2267 2269 1
  1690 2269 2270 1
  1691 2270 2271 am
  1692 2270 2277 1
  1693 2271 2272 2
  1694 2271 2273 am
  1695 2273 2274 am
  1696 2274 2276 1
  1697 2274 2275 2
  1698 2276 2277 2
  1699 2236 2258 1
  1700 2288 2289 1
  1701 2288 2290 1
  1702 2288 2291 1
  1703 2291 2292 1
  1704 2292 2293 1
  1705 2293 2295 1
  1706 2293 2294 1
  1707 2294 2299 1
  1708 2295 2297 1
  1709 2295 2296 1
  1710 2297 2298 1
  1711 2297 2299 1
  1712 2299 2300 1
  1713 2300 2301 am
  1714 2300 2307 1
  1715 2301 2303 1
  1716 2301 2302 2
  1717 2303 2304 2
  1718 2304 2306 2
  1719 2304 2305 2
  1720 2306 2307 2
  1721 2266 2288 1
  1722 2319 2320 1
  1723 2319 2321 1
  1724 2319 2322 1
  1725 2322 2323 1
  1726 2323 2324 1
  1727 2324 2326 1
  1728 2324 2325 1
  1729 2325 2330 1
  1730 2326 2328 1
  1731 2326 2327 1
  1732 2328 2329 1
  1733 2328 2330 1
  1734 2330 2331 1
  1735 2331 2332 am
  1736 2331 2338 1
  1737 2332 2334 1
  1738 2332 2333 2
  1739 2334 2335 2
  1740 2335 2337 2
  1741 2335 2336 2
  1742 2337 2338 2
  1743 2296 2319 1
  1744 2350 2352 1
  1745 2350 2353 1
  1746 2350 2351 1
  1747 2353 2354 1
  1748 2354 2355 1
  1749 2355 2357 1
  1750 2355 2356 1
  1751 2356 2361 1
  1752 2357 2358 1
  1753 2357 2359 1
  1754 2359 2360 1
  1755 2359 2361 1
  1756 2361 2362 1
  1757 2362 2371 ar
  1758 2362 2363 ar
  1759 2363 2364 ar
  1760 2364 2365 ar
  1761 2365 2366 ar
  1762 2365 2371 ar
  1763 2366 2367 1
  1764 2366 2368 ar
  1765 2368 2369 ar
  1766 2369 2370 ar
  1767 2370 2371 ar
  1768 2327 2350 1
  1769 2383 2385 1
  1770 2383 2386 1
  1771 2383 2384 1
  1772 2386 2387 1
  1773 2387 2388 1
  1774 2388 2390 1
  1775 2388 2389 1
  1776 2389 2394 1
  1777 2390 2391 1
  1778 2390 2392 1
  1779 2392 2393 1
  1780 2392 2394 1
  1781 2394 2395 1
  1782 2395 2404 ar
  1783 2395 2396 ar
  1784 2396 2397 ar
  1785 2397 2398 ar
  1786 2398 2399 ar
  1787 2398 2404 ar
  1788 2399 2400 1
  1789 2399 2401 ar
  1790 2401 2402 ar
  1791 2402 2403 ar
  1792 2403 2404 ar
  1793 2358 2383 1
  1794 2416 2418 1
  1795 2416 2419 1
  1796 2416 2417 1
  1797 2419 2420 1
  1798 2420 2421 1
  1799 2421 2423 1
  1800 2421 2422 1
  1801 2422 2427 1
  1802 2423 2424 1
  1803 2423 2425 1
  1804 2425 2426 1
  1805 2425 2427 1
  1806 2427 2428 1
  1807 2428 2437 ar
  1808 2428 2429 ar
  1809 2429 2430 ar
  1810 2430 2431 ar
  1811 2431 2432 ar
  1812 2431 2437 ar
  1813 2432 2433 1
  1814 2432 2434 ar
  1815 2434 2435 ar
  1816 2435 2436 ar
  1817 2436 2437 ar
  1818 2391 2416 1
  1819 2449 2451 1
  1820 2449 2452 1
  1821 2449 2450 1
  1822 2452 2453 1
  1823 2453 2454 1
  1824 2454 2456 1
  1825 2454 2455 1
  1826 2455 2460 1
  1827 2456 2457 1
  1828 2456 2458 1
  1829 2458 2459 1
  1830 2458 2460 1
  1831 2460 2461 1
  1832 2461 2470 ar
  1833 2461 2462 ar
  1834 2462 2463 ar
  1835 2463 2464 ar
  1836 2464 2465 ar
  1837 2464 2470 ar
  1838 2465 2466 1
  1839 2465 2467 ar
  1840 2467 2468 ar
  1841 2468 2469 ar
  1842 2469 2470 ar
  1843 2424 2449 1
  1844 2482 2483 1
  1845 2482 2484 1
  1846 2482 2485 1
  1847 2485 2486 1
  1848 2486 2487 1
  1849 2487 2489 1
  1850 2487 2488 1
  1851 2488 2493 1
  1852 2489 2491 1
  1853 2489 2490 1
  1854 2491 2492 1
  1855 2491 2493 1
  1856 2493 2494 1
  1857 2494 2495 am
  1858 2494 2501 1
  1859 2495 2497 1
  1860 2495 2496 2
  1861 2497 2498 2
  1862 2498 2500 2
  1863 2498 2499 2
  1864 2500 2501 2
  1865 2457 2482 1
  1866 2513 2514 1
  1867 2513 2515 1
  1868 2513 2516 1
  1869 2516 2517 1
  1870 2517 2518 1
  1871 2518 2520 1
  1872 2518 2519 1
  1873 2519 2524 1
  1874 2520 2522 1
  1875 2520 2521 1
  1876 2522 2523 1
  1877 2522 2524 1
  1878 2524 2525 1
  1879 2525 2526 am
  1880 2525 2532 1
  1881 2526 2528 1
  1882 2526 2527 2
  1883 2528 2529 2
  1884 2529 2531 2
  1885 2529 2530 2
  1886 2531 2532 2
  1887 2490 2513 1
  1888 2544 2546 1
  1889 2544 2545 1
  1890 2544 2547 1
  1891 2547 2548 1
  1892 2548 2549 1
  1893 2549 2551 1
  1894 2549 2550 1
  1895 2550 2555 1
  1896 2551 2552 1
  1897 2551 2553 1
  1898 2553 2554 1
  1899 2553 2555 1
  1900 2555 2556 1
  1901 2556 2557 ar
  1902 2556 2566 ar
  1903 2557 2558 ar
  1904 2558 2559 ar
  1905 2559 2566 ar
  1906 2559 2560 1
  1907 2560 2561 2
  1908 2560 2562 am
  1909 2562 2563 1
  1910 2563 2564 2
  1911 2563 2565 2
  1912 2565 2566 1
  1913 2521 2544 1
  1914 2578 2580 1
  1915 2578 2581 1
  1916 2578 2579 1
  1917 2581 2582 1
  1918 2582 2583 1
  1919 2583 2585 1
  1920 2583 2584 1
  1921 2584 2589 1
  1922 2585 2586 1
  1923 2585 2587 1
  1924 2587 2588 1
  1925 2587 2589 1
  1926 2589 2590 1
  1927 2590 2599 ar
  1928 2590 2591 ar
  1929 2591 2592 ar
  1930 2592 2593 ar
  1931 2593 2594 ar
  1932 2593 2599 ar
  1933 2594 2595 1
  1934 2594 2596 ar
  1935 2596 2597 ar
  1936 2597 2598 ar
  1937 2598 2599 ar
  1938 2552 2578 1
  1939 2611 2612 1
  1940 2611 2613 1
  1941 2611 2614 1
  1942 2614 2615 1
  1943 2615 2616 1
  1944 2616 2618 1
  1945 2616 2617 1
  1946 2617 2622 1
  1947 2618 2620 1
  1948 2618 2619 1
  1949 2620 2621 1
  1950 2620 2622 1
  1951 2622 2623 1
  1952 2623 2624 am
  1953 2623 2630 1
  1954 2624 2626 1
  1955 2624 2625 2
  1956 2626 2627 2
  1957 2627 2629 2
  1958 2627 2628 2
  1959 2629 2630 2
  1960 2586 2611 1
  1961 2642 2644 1
  1962 2642 2645 1
  1963 2642 2643 1
  1964 2645 2646 1
  1965 2646 2647 1
  1966 2647 2649 1
  1967 2647 2648 1
  1968 2648 2653 1
  1969 2649 2650 1
  1970 2649 2651 1
  1971 2651 2652 1
  1972 2651 2653 1
  1973 2653 2654 1
  1974 2654 2663 ar
  1975 2654 2655 ar
  1976 2655 2656 ar
  1977 2656 2657 ar
  1978 2657 2658 ar
  1979 2657 2663 ar
  1980 2658 2659 1
  1981 2658 2660 ar
  1982 2660 2661 ar
  1983 2661 2662 ar
  1984 2662 2663 ar
  1985 2619 2642 1
  1986 2675 2677 1
  1987 2675 2676 1
  1988 2675 2678 1
  1989 2678 2679 1
  1990 2679 2680 1
  1991 2680 2682 1
  1992 2680 2681 1
  1993 2681 2686 1
  1994 2682 2683 1
  1995 2682 2684 1
  1996 2684 2685 1
  1997 2684 2686 1
  1998 2686 2687 1
  1999 2687 2688 ar
  2000 2687 2697 ar
  2001 2688 2689 ar
  2002 2689 2690 ar
  2003 2690 2697 ar
  2004 2690 2691 1
  2005 2691 2692 2
  2006 2691 2693 am
  2007 2693 2694 1
  2008 2694 2695 2
  2009 2694 2696 2
  2010 2696 2697 1
  2011 2650 2675 1
  2012 2709 2710 1
  2013 2709 2711 1
  2014 2709 2712 1
  2015 2712 2713 1
  2016 2713 2714 1
  2017 2714 2716 1
  2018 2714 2715 1
  2019 2715 2720 1
  2020 2716 2718 1
  2021 2716 2717 1
  2022 2718 2719 1
  2023 2718 2720 1
  2024 2720 2721 1
  2025 2721 2722 am
  2026 2721 2728 1
  2027 2722 2723 2
  2028 2722 2724 am
  2029 2724 2725 am
  2030 2725 2727 1
  2031 2725 2726 2
  2032 2727 2728 2
  2033 2683 2709 1
  2034 2739 2741 1
  2035 2739 2742 1
  2036 2739 2740 1
  2037 2742 2743 1
  2038 2743 2744 1
  2039 2744 2746 1
  2040 2744 2745 1
  2041 2745 2750 1
  2042 2746 2747 1
  2043 2746 2748 1
  2044 2748 2749 1
  2045 2748 2750 1
  2046 2750 2751 1
  2047 2751 2760 ar
  2048 2751 2752 ar
  2049 2752 2753 ar
  2050 2753 2754 ar
  2051 2754 2755 ar
  2052 2754 2760 ar
  2053 2755 2756 1
  2054 2755 2757 ar
  2055 2757 2758 ar
  2056 2758 2759 ar
  2057 2759 2760 ar
  2058 2717 2739 1
  2059 2772 2774 1
  2060 2772 2773 1
  2061 2772 2775 1
  2062 2775 2776 1
  2063 2776 2777 1
  2064 2777 2779 1
  2065 2777 2778 1
  2066 2778 2783 1
  2067 2779 2780 1
  2068 2779 2781 1
  2069 2781 2782 1
  2070 2781 2783 1
  2071 2783 2784 1
  2072 2784 2785 ar
  2073 2784 2794 ar
  2074 2785 2786 ar
  2075 2786 2787 ar
  2076 2787 2794 ar
  2077 2787 2788 1
  2078 2788 2789 2
  2079 2788 2790 am
  2080 2790 2791 1
  2081 2791 2792 2
  2082 2791 2793 2
  2083 2793 2794 1
  2084 2747 2772 1
  2085 2806 2808 1
  2086 2806 2809 1
  2087 2806 2807 1
  2088 2809 2810 1
  2089 2810 2811 1
  2090 2811 2813 1
  2091 2811 2812 1
  2092 2812 2817 1
  2093 2813 2814 1
  2094 2813 2815 1
  2095 2815 2816 1
  2096 2815 2817 1
  2097 2817 2818 1
  2098 2818 2827 ar
  2099 2818 2819 ar
  2100 2819 2820 ar
  2101 2820 2821 ar
  2102 2821 2822 ar
  2103 2821 2827 ar
  2104 2822 2823 1
  2105 2822 2824 ar
  2106 2824 2825 ar
  2107 2825 2826 ar
  2108 2826 2827 ar
  2109 2780 2806 1
  2110 2839 2841 1
  2111 2839 2840 1
  2112 2839 2842 1
  2113 2842 2843 1
  2114 2843 2844 1
  2115 2844 2846 1
  2116 2844 2845 1
  2117 2845 2850 1
  2118 2846 2847 1
  2119 2846 2848 1
  2120 2848 2849 1
  2121 2848 2850 1
  2122 2850 2851 1
  2123 2851 2852 ar
  2124 2851 2861 ar
  2125 2852 2853 ar
  2126 2853 2854 ar
  2127 2854 2861 ar
  2128 2854 2855 1
  2129 2855 2856 2
  2130 2855 2857 am
  2131 2857 2858 1
  2132 2858 2859 2
  2133 2858 2860 2
  2134 2860 2861 1
  2135 2814 2839 1
  2136 2873 2874 1
  2137 2873 2875 1
  2138 2873 2876 1
  2139 2876 2877 1
  2140 2877 2878 1
  2141 2878 2880 1
  2142 2878 2879 1
  2143 2879 2884 1
  2144 2880 2882 1
  2145 2880 2881 1
  2146 2882 2883 1
  2147 2882 2884 1
  2148 2884 2885 1
  2149 2885 2886 am
  2150 2885 2892 1
  2151 2886 2887 2
  2152 2886 2888 am
  2153 2888 2889 am
  2154 2889 2891 1
  2155 2889 2890 2
  2156 2891 2892 2
  2157 2847 2873 1
  2158 2903 2904 1
  2159 2903 2905 1
  2160 2903 2906 1
  2161 2906 2907 1
  2162 2907 2908 1
  2163 2908 2910 1
  2164 2908 2909 1
  2165 2909 2914 1
  2166 2910 2912 1
  2167 2910 2911 1
  2168 2912 2913 1
  2169 2912 2914 1
  2170 2914 2915 1
  2171 2915 2916 am
  2172 2915 2922 1
  2173 2916 2918 1
  2174 2916 2917 2
  2175 2918 2919 2
  2176 2919 2921 2
  2177 2919 2920 2
  2178 2921 2922 2
  2179 2881 2903 1
  2180 2934 2935 1
  2181 2934 2936 1
  2182 2934 2937 1
  2183 2937 2938 1
  2184 2938 2939 1
  2185 2939 2941 1
  2186 2939 2940 1
  2187 2940 2945 1
  2188 2941 2943 1
  2189 2941 2942 1
  2190 2943 2944 1
  2191 2943 2945 1
  2192 2945 2946 1
  2193 2946 2947 am
  2194 2946 2953 1
  2195 2947 2948 2
  2196 2947 2949 am
  2197 2949 2950 am
  2198 2950 2952 1
  2199 2950 2951 2
  2200 2952 2953 2
  2201 2911 2934 1
  2202 2964 2966 1
  2203 2964 2965 1
  2204 2964 2967 1
  2205 2967 2968 1
  2206 2968 2969 1
  2207 2969 2971 1
  2208 2969 2970 1
  2209 2970 2975 1
  2210 2971 2972 1
  2211 2971 2973 1
  2212 2973 2974 1
  2213 2973 2975 1
  2214 2975 2976 1
  2215 2976 2977 ar
  2216 2976 2986 ar
  2217 2977 2978 ar
  2218 2978 2979 ar
  2219 2979 2986 ar
  2220 2979 2980 1
  2221 2980 2981 2
  2222 2980 2982 am
  2223 2982 2983 1
  2224 2983 2984 2
  2225 2983 2985 2
  2226 2985 2986 1
  2227 2942 2964 1
  2228 2998 3000 1
  2229 2998 2999 1
  2230 2998 3001 1
  2231 3001 3002 1
  2232 3002 3003 1
  2233 3003 3005 1
  2234 3003 3004 1
  2235 3004 3009 1
  2236 3005 3006 1
  2237 3005 3007 1
  2238 3007 3008 1
  2239 3007 3009 1
  2240 3009 3010 1
  2241 3010 3011 ar
  2242 3010 3020 ar
  2243 3011 3012 ar
  2244 3012 3013 ar
  2245 3013 3020 ar
  2246 3013 3014 1
  2247 3014 3015 2
  2248 3014 3016 am
  2249 3016 3017 1
  2250 3017 3018 2
  2251 3017 3019 2
  2252 3019 3020 1
  2253 2972 2998 1
  2254 3032 3034 1
  2255 3032 3035 1
  2256 3032 3033 1
  2257 3035 3036 1
  2258 3036 3037 1
  2259 3037 3039 1
  2260 3037 3038 1
  2261 3038 3043 1
  2262 3039 3040 1
  2263 3039 3041 1
  2264 3041 3042 1
  2265 3041 3043 1
  2266 3043 3044 1
  2267 3044 3053 ar
  2268 3044 3045 ar
  2269 3045 3046 ar
  2270 3046 3047 ar
  2271 3047 3048 ar
  2272 3047 3053 ar
  2273 3048 3049 1
  2274 3048 3050 ar
  2275 3050 3051 ar
  2276 3051 3052 ar
  2277 3052 3053 ar
  2278 3006 3032 1
  2279 3065 3066 1
  2280 3065 3067 1
  2281 3065 3068 1
  2282 3068 3069 1
  2283 3069 3070 1
  2284 3070 3072 1
  2285 3070 3071 1
  2286 3071 3076 1
  2287 3072 3074 1
  2288 3072 3073 1
  2289 3074 3075 1
  2290 3074 3076 1
  2291 3076 3077 1
  2292 3077 3078 am
  2293 3077 3084 1
  2294 3078 3079 2
  2295 3078 3080 am
  2296 3080 3081 am
  2297 3081 3083 1
  2298 3081 3082 2
  2299 3083 3084 2
  2300 3040 3065 1
  2301 3095 3097 1
  2302 3095 3096 1
  2303 3095 3098 1
  2304 3098 3099 1
  2305 3099 3100 1
  2306 3100 3102 1
  2307 3100 3101 1
  2308 3101 3106 1
  2309 3102 3103 1
  2310 3102 3104 1
  2311 3104 3105 1
  2312 3104 3106 1
  2313 3106 3107 1
  2314 3107 3108 ar
  2315 3107 3117 ar
  2316 3108 3109 ar
  2317 3109 3110 ar
  2318 3110 3117 ar
  2319 3110 3111 1
  2320 3111 3112 2
  2321 3111 3113 am
  2322 3113 3114 1
  2323 3114 3115 2
  2324 3114 3116 2
  2325 3116 3117 1
  2326 3073 3095 1
  2327 3129 3131 1
  2328 3129 3132 1
  2329 3129 3130 1
  2330 3132 3133 1
  2331 3133 3134 1
  2332 3134 3136 1
  2333 3134 3135 1
  2334 3135 3140 1
  2335 3136 3137 1
  2336 3136 3138 1
  2337 3138 3139 1
  2338 3138 3140 1
  2339 3140 3141 1
  2340 3141 3150 ar
  2341 3141 3142 ar
  2342 3142 3143 ar
  2343 3143 3144 ar
  2344 3144 3145 ar
  2345 3144 3150 ar
  2346 3145 3146 1
  2347 3145 3147 ar
  2348 3147 3148 ar
  2349 3148 3149 ar
  2350 3149 3150 ar
  2351 3103 3129 1
  2352 3162 3164 1
  2353 3162 3163 1
  2354 3162 3165 1
  2355 3165 3166 1
  2356 3166 3167 1
  2357 3167 3169 1
  2358 3167 3168 1
  2359 3168 3173 1
  2360 3169 3170 1
  2361 3169 3171 1
  2362 3171 3172 1
  2363 3171 3173 1
  2364 3173 3174 1
  2365 3174 3175 ar
  2366 3174 3184 ar
  2367 3175 3176 ar
  2368 3176 3177 ar
  2369 3177 3184 ar
  2370 3177 3178 1
  2371 3178 3179 2
  2372 3178 3180 am
  2373 3180 3181 1
  2374 3181 3182 2
  2375 3181 3183 2
  2376 3183 3184 1
  2377 3137 3162 1
  2378 3196 3198 1
  2379 3196 3199 1
  2380 3196 3197 1
  2381 3199 3200 1
  2382 3200 3201 1
  2383 3201 3203 1
  2384 3201 3202 1
  2385 3202 3207 1
  2386 3203 3204 1
  2387 3203 3205 1
  2388 3205 3206 1
  2389 3205 3207 1
  2390 3207 3208 1
  2391 3208 3217 ar
  2392 3208 3209 ar
  2393 3209 3210 ar
  2394 3210 3211 ar
  2395 3211 3212 ar
  2396 3211 3217 ar
  2397 3212 3213 1
  2398 3212 3214 ar
  2399 3214 3215 ar
  2400 3215 3216 ar
  2401 3216 3217 ar
  2402 3170 3196 1
  2403 3229 3231 1
  2404 3229 3230 1
  2405 3229 3232 1
  2406 3232 3233 1
  2407 3233 3234 1
  2408 3234 3236 1
  2409 3234 3235 1
  2410 3235 3240 1
  2411 3236 3237 1
  2412 3236 3238 1
  2413 3238 3239 1
  2414 3238 3240 1
  2415 3240 3241 1
  2416 3241 3242 ar
  2417 3241 3251 ar
  2418 3242 3243 ar
  2419 3243 3244 ar
  2420 3244 3251 ar
  2421 3244 3245 1
  2422 3245 3246 2
  2423 3245 3247 am
  2424 3247 3248 1
  2425 3248 3249 2
  2426 3248 3250 2
  2427 3250 3251 1
  2428 3204 3229 1
  2429 3263 3265 1
  2430 3263 3266 1
  2431 3263 3264 1
  2432 3266 3267 1
  2433 3267 3268 1
  2434 3268 3270 1
  2435 3268 3269 1
  2436 3269 3274 1
  2437 3270 3271 1
  2438 3270 3272 1
  2439 3272 3273 1
  2440 3272 3274 1
  2441 3274 3275 1
  2442 3275 3284 ar
  2443 3275 3276 ar
  2444 3276 3277 ar
  2445 3277 3278 ar
  2446 3278 3279 ar
  2447 3278 3284 ar
  2448 3279 3280 1
  2449 3279 3281 ar
  2450 3281 3282 ar
  2451 3282 3283 ar
  2452 3283 3284 ar
  2453 3237 3263 1
  2454 3296 3298 1
  2455 3296 3299 1
  2456 3296 3297 1
  2457 3299 3300 1
  2458 3300 3301 1
  2459 3301 3303 1
  2460 3301 3302 1
  2461 3302 3307 1
  2462 3303 3304 1
  2463 3303 3305 1
  2464 3305 3306 1
  2465 3305 3307 1
  2466 3307 3308 1
  2467 3308 3317 ar
  2468 3308 3309 ar
  2469 3309 3310 ar
  2470 3310 3311 ar
  2471 3311 3312 ar
  2472 3311 3317 ar
  2473 3312 3313 1
  2474 3312 3314 ar
  2475 3314 3315 ar
  2476 3315 3316 ar
  2477 3316 3317 ar
  2478 3271 3296 1
  2479 3329 3331 1
  2480 3329 3330 1
  2481 3329 3332 1
  2482 3332 3333 1
  2483 3333 3334 1
  2484 3334 3336 1
  2485 3334 3335 1
  2486 3335 3340 1
  2487 3336 3337 1
  2488 3336 3338 1
  2489 3338 3339 1
  2490 3338 3340 1
  2491 3340 3341 1
  2492 3341 3342 ar
  2493 3341 3351 ar
  2494 3342 3343 ar
  2495 3343 3344 ar
  2496 3344 3351 ar
  2497 3344 3345 1
  2498 3345 3346 2
  2499 3345 3347 am
  2500 3347 3348 1
  2501 3348 3349 2
  2502 3348 3350 2
  2503 3350 3351 1
  2504 3304 3329 1
  2505 3363 3365 1
  2506 3363 3366 1
  2507 3363 3364 1
  2508 3366 3367 1
  2509 3367 3368 1
  2510 3368 3370 1
  2511 3368 3369 1
  2512 3369 3374 1
  2513 3370 3371 1
  2514 3370 3372 1
  2515 3372 3373 1
  2516 3372 3374 1
  2517 3374 3375 1
  2518 3375 3384 ar
  2519 3375 3376 ar
  2520 3376 3377 ar
  2521 3377 3378 ar
  2522 3378 3379 ar
  2523 3378 3384 ar
  2524 3379 3380 1
  2525 3379 3381 ar
  2526 3381 3382 ar
  2527 3382 3383 ar
  2528 3383 3384 ar
  2529 3337 3363 1
  2530 3396 3397 1
  2531 3396 3398 1
  2532 3396 3399 1
  2533 3399 3400 1
  2534 3400 3401 1
  2535 3401 3403 1
  2536 3401 3402 1
  2537 3402 3407 1
  2538 3403 3405 1
  2539 3403 3404 1
  2540 3405 3406 1
  2541 3405 3407 1
  2542 3407 3408 1
  2543 3408 3409 am
  2544 3408 3415 1
  2545 3409 3410 2
  2546 3409 3411 am
  2547 3411 3412 am
  2548 3412 3414 1
  2549 3412 3413 2
  2550 3414 3415 2
  2551 3371 3396 1
  2552 3426 3427 1
  2553 3426 3428 1
  2554 3426 3429 1
  2555 3429 3430 1
  2556 3430 3431 1
  2557 3431 3433 1
  2558 3431 3432 1
  2559 3432 3437 1
  2560 3433 3435 1
  2561 3433 3434 1
  2562 3435 3436 1
  2563 3435 3437 1
  2564 3437 3438 1
  2565 3438 3439 am
  2566 3438 3445 1
  2567 3439 3440 2
  2568 3439 3441 am
  2569 3441 3442 am
  2570 3442 3444 1
  2571 3442 3443 2
  2572 3444 3445 2
  2573 3404 3426 1
  2574 3459 3460 1
  2575 3460 3461 1
  2576 3461 3463 1
  2577 3461 3462 1
  2578 3462 3467 1
  2579 3463 3465 1
  2580 3463 3464 1
  2581 3465 3466 1
  2582 3465 3467 1
  2583 3467 3468 1
  2584 3468 3475 1
  2585 3468 3469 am
  2586 3469 3470 2
  2587 3469 3471 1
  2588 3471 3472 2
  2589 3472 3474 2
  2590 3472 3473 2
  2591 3474 3475 2
  2592 3456 3457 1
  2593 3456 3458 1
  2594 3456 3459 1
  2595 3434 3456 1
  2596   21    2 1
  2597   22    2 1
  2598   23    3 1
  2599   24    5 1
  2600   25    7 1
  2601   26    9 1
  2602   27   11 1
  2603   28   16 1
  2604   56   37 1
  2605   57   37 1
  2606   58   38 1
  2607   59   40 1
  2608   60   42 1
  2609   61   44 1
  2610   62   46 1
  2611   63   51 1
  2612   89   71 1
  2613   90   71 1
  2614   91   72 1
  2615   92   74 1
  2616   93   76 1
  2617   94   78 1
  2618   95   80 1
  2619   96   86 1
  2620  120  104 1
  2621  121  104 1
  2622  122  105 1
  2623  123  107 1
  2624  124  109 1
  2625  125  111 1
  2626  126  115 1
  2627  127  118 1
  2628  128  119 1
  2629  150  134 1
  2630  151  134 1
  2631  152  135 1
  2632  153  137 1
  2633  154  139 1
  2634  155  141 1
  2635  156  148 1
  2636  157  149 1
  2637  181  165 1
  2638  182  165 1
  2639  183  166 1
  2640  184  168 1
  2641  185  170 1
  2642  186  172 1
  2643  187  176 1
  2644  188  179 1
  2645  189  180 1
  2646  211  195 1
  2647  212  195 1
  2648  213  196 1
  2649  214  198 1
  2650  215  200 1
  2651  216  202 1
  2652  217  206 1
  2653  218  209 1
  2654  219  210 1
  2655  241  225 1
  2656  242  225 1
  2657  243  226 1
  2658  244  228 1
  2659  245  230 1
  2660  246  232 1
  2661  247  239 1
  2662  248  240 1
  2663  275  256 1
  2664  276  256 1
  2665  277  257 1
  2666  278  259 1
  2667  279  261 1
  2668  280  263 1
  2669  281  265 1
  2670  282  270 1
  2671  309  290 1
  2672  310  290 1
  2673  311  291 1
  2674  312  293 1
  2675  313  295 1
  2676  314  297 1
  2677  315  299 1
  2678  316  304 1
  2679  343  324 1
  2680  344  324 1
  2681  345  325 1
  2682  346  327 1
  2683  347  329 1
  2684  348  331 1
  2685  349  333 1
  2686  350  338 1
  2687  377  358 1
  2688  378  358 1
  2689  379  359 1
  2690  380  361 1
  2691  381  363 1
  2692  382  365 1
  2693  383  367 1
  2694  384  372 1
  2695  408  392 1
  2696  409  392 1
  2697  410  393 1
  2698  411  395 1
  2699  412  397 1
  2700  413  399 1
  2701  414  406 1
  2702  415  407 1
  2703  441  423 1
  2704  442  423 1
  2705  443  424 1
  2706  444  426 1
  2707  445  428 1
  2708  446  430 1
  2709  447  432 1
  2710  448  438 1
  2711  475  456 1
  2712  476  456 1
  2713  477  457 1
  2714  478  459 1
  2715  479  461 1
  2716  480  463 1
  2717  481  465 1
  2718  482  470 1
  2719  509  490 1
  2720  510  490 1
  2721  511  491 1
  2722  512  493 1
  2723  513  495 1
  2724  514  497 1
  2725  515  499 1
  2726  516  504 1
  2727  543  524 1
  2728  544  524 1
  2729  545  525 1
  2730  546  527 1
  2731  547  529 1
  2732  548  531 1
  2733  549  533 1
  2734  550  538 1
  2735  574  558 1
  2736  575  558 1
  2737  576  559 1
  2738  577  561 1
  2739  578  563 1
  2740  579  565 1
  2741  580  569 1
  2742  581  572 1
  2743  582  573 1
  2744  607  588 1
  2745  608  588 1
  2746  609  589 1
  2747  610  591 1
  2748  611  593 1
  2749  612  595 1
  2750  613  597 1
  2751  614  602 1
  2752  640  622 1
  2753  641  622 1
  2754  642  623 1
  2755  643  625 1
  2756  644  627 1
  2757  645  629 1
  2758  646  631 1
  2759  647  637 1
  2760  673  655 1
  2761  674  655 1
  2762  675  656 1
  2763  676  658 1
  2764  677  660 1
  2765  678  662 1
  2766  679  664 1
  2767  680  670 1
  2768  706  688 1
  2769  707  688 1
  2770  708  689 1
  2771  709  691 1
  2772  710  693 1
  2773  711  695 1
  2774  712  697 1
  2775  713  703 1
  2776  737  721 1
  2777  738  721 1
  2778  739  722 1
  2779  740  724 1
  2780  741  726 1
  2781  742  728 1
  2782  743  732 1
  2783  744  735 1
  2784  745  736 1
  2785  767  751 1
  2786  768  751 1
  2787  769  752 1
  2788  770  754 1
  2789  771  756 1
  2790  772  758 1
  2791  773  762 1
  2792  774  765 1
  2793  775  766 1
  2794  797  781 1
  2795  798  781 1
  2796  799  782 1
  2797  800  784 1
  2798  801  786 1
  2799  802  788 1
  2800  803  795 1
  2801  804  796 1
  2802  828  812 1
  2803  829  812 1
  2804  830  813 1
  2805  831  815 1
  2806  832  817 1
  2807  833  819 1
  2808  834  826 1
  2809  835  827 1
  2810  859  843 1
  2811  860  843 1
  2812  861  844 1
  2813  862  846 1
  2814  863  848 1
  2815  864  850 1
  2816  865  857 1
  2817  866  858 1
  2818  893  874 1
  2819  894  874 1
  2820  895  875 1
  2821  896  877 1
  2822  897  879 1
  2823  898  881 1
  2824  899  883 1
  2825  900  888 1
  2826  926  908 1
  2827  927  908 1
  2828  928  909 1
  2829  929  911 1
  2830  930  913 1
  2831  931  915 1
  2832  932  917 1
  2833  933  923 1
  2834  957  941 1
  2835  958  941 1
  2836  959  942 1
  2837  960  944 1
  2838  961  946 1
  2839  962  948 1
  2840  963  955 1
  2841  964  956 1
  2842  988  972 1
  2843  989  972 1
  2844  990  973 1
  2845  991  975 1
  2846  992  977 1
  2847  993  979 1
  2848  994  986 1
  2849  995  987 1
  2850 1022 1003 1
  2851 1023 1003 1
  2852 1024 1004 1
  2853 1025 1006 1
  2854 1026 1008 1
  2855 1027 1010 1
  2856 1028 1012 1
  2857 1029 1017 1
  2858 1056 1037 1
  2859 1057 1037 1
  2860 1058 1038 1
  2861 1059 1040 1
  2862 1060 1042 1
  2863 1061 1044 1
  2864 1062 1046 1
  2865 1063 1051 1
  2866 1087 1071 1
  2867 1088 1071 1
  2868 1089 1072 1
  2869 1090 1074 1
  2870 1091 1076 1
  2871 1092 1078 1
  2872 1093 1082 1
  2873 1094 1085 1
  2874 1095 1086 1
  2875 1120 1101 1
  2876 1121 1101 1
  2877 1122 1102 1
  2878 1123 1104 1
  2879 1124 1106 1
  2880 1125 1108 1
  2881 1126 1110 1
  2882 1127 1115 1
  2883 1154 1135 1
  2884 1155 1135 1
  2885 1156 1136 1
  2886 1157 1138 1
  2887 1158 1140 1
  2888 1159 1142 1
  2889 1160 1144 1
  2890 1161 1149 1
  2891 1185 1169 1
  2892 1186 1169 1
  2893 1187 1170 1
  2894 1188 1172 1
  2895 1189 1174 1
  2896 1190 1176 1
  2897 1191 1180 1
  2898 1192 1183 1
  2899 1193 1184 1
  2900 1217 1199 1
  2901 1218 1199 1
  2902 1219 1200 1
  2903 1220 1202 1
  2904 1221 1204 1
  2905 1222 1206 1
  2906 1223 1208 1
  2907 1224 1214 1
  2908 1248 1232 1
  2909 1249 1232 1
  2910 1250 1233 1
  2911 1251 1235 1
  2912 1252 1237 1
  2913 1253 1239 1
  2914 1254 1243 1
  2915 1255 1246 1
  2916 1256 1247 1
  2917 1280 1262 1
  2918 1281 1262 1
  2919 1282 1263 1
  2920 1283 1265 1
  2921 1284 1267 1
  2922 1285 1269 1
  2923 1286 1271 1
  2924 1287 1277 1
  2925 1314 1295 1
  2926 1315 1295 1
  2927 1316 1296 1
  2928 1317 1298 1
  2929 1318 1300 1
  2930 1319 1302 1
  2931 1320 1304 1
  2932 1321 1309 1
  2933 1345 1329 1
  2934 1346 1329 1
  2935 1347 1330 1
  2936 1348 1332 1
  2937 1349 1334 1
  2938 1350 1336 1
  2939 1351 1340 1
  2940 1352 1343 1
  2941 1353 1344 1
  2942 1375 1359 1
  2943 1376 1359 1
  2944 1377 1360 1
  2945 1378 1362 1
  2946 1379 1364 1
  2947 1380 1366 1
  2948 1381 1373 1
  2949 1382 1374 1
  2950 1406 1390 1
  2951 1407 1390 1
  2952 1408 1391 1
  2953 1409 1393 1
  2954 1410 1395 1
  2955 1411 1397 1
  2956 1412 1404 1
  2957 1413 1405 1
  2958 1439 1421 1
  2959 1440 1421 1
  2960 1441 1422 1
  2961 1442 1424 1
  2962 1443 1426 1
  2963 1444 1428 1
  2964 1445 1430 1
  2965 1446 1436 1
  2966 1470 1454 1
  2967 1471 1454 1
  2968 1472 1455 1
  2969 1473 1457 1
  2970 1474 1459 1
  2971 1475 1461 1
  2972 1476 1468 1
  2973 1477 1469 1
  2974 1504 1485 1
  2975 1505 1485 1
  2976 1506 1486 1
  2977 1507 1488 1
  2978 1508 1490 1
  2979 1509 1492 1
  2980 1510 1494 1
  2981 1511 1499 1
  2982 1537 1519 1
  2983 1538 1519 1
  2984 1539 1520 1
  2985 1540 1522 1
  2986 1541 1524 1
  2987 1542 1526 1
  2988 1543 1528 1
  2989 1544 1534 1
  2990 1570 1552 1
  2991 1571 1552 1
  2992 1572 1553 1
  2993 1573 1555 1
  2994 1574 1557 1
  2995 1575 1559 1
  2996 1576 1561 1
  2997 1577 1567 1
  2998 1603 1585 1
  2999 1604 1585 1
  3000 1605 1586 1
  3001 1606 1588 1
  3002 1607 1590 1
  3003 1608 1592 1
  3004 1609 1594 1
  3005 1610 1600 1
  3006 1637 1618 1
  3007 1638 1618 1
  3008 1639 1619 1
  3009 1640 1621 1
  3010 1641 1623 1
  3011 1642 1625 1
  3012 1643 1627 1
  3013 1644 1632 1
  3014 1668 1652 1
  3015 1669 1652 1
  3016 1670 1653 1
  3017 1671 1655 1
  3018 1672 1657 1
  3019 1673 1659 1
  3020 1674 1666 1
  3021 1675 1667 1
  3022 1707 1688 1
  3023 1708 1688 1
  3024 1709 1689 1
  3025 1710 1691 1
  3026 1711 1693 1
  3027 1712 1695 1
  3028 1713 1697 1
  3029 1714 1702 1
  3030 1739 1723 1
  3031 1740 1723 1
  3032 1741 1724 1
  3033 1742 1726 1
  3034 1743 1728 1
  3035 1744 1730 1
  3036 1745 1737 1
  3037 1746 1738 1
  3038 1770 1754 1
  3039 1771 1754 1
  3040 1772 1755 1
  3041 1773 1757 1
  3042 1774 1759 1
  3043 1775 1761 1
  3044 1776 1765 1
  3045 1777 1768 1
  3046 1778 1769 1
  3047 1800 1784 1
  3048 1801 1784 1
  3049 1802 1785 1
  3050 1803 1787 1
  3051 1804 1789 1
  3052 1805 1791 1
  3053 1806 1795 1
  3054 1807 1798 1
  3055 1808 1799 1
  3056 1830 1814 1
  3057 1831 1814 1
  3058 1832 1815 1
  3059 1833 1817 1
  3060 1834 1819 1
  3061 1835 1821 1
  3062 1836 1825 1
  3063 1837 1828 1
  3064 1838 1829 1
  3065 1863 1844 1
  3066 1864 1844 1
  3067 1865 1845 1
  3068 1866 1847 1
  3069 1867 1849 1
  3070 1868 1851 1
  3071 1869 1853 1
  3072 1870 1858 1
  3073 1896 1878 1
  3074 1897 1878 1
  3075 1898 1879 1
  3076 1899 1881 1
  3077 1900 1883 1
  3078 1901 1885 1
  3079 1902 1887 1
  3080 1903 1893 1
  3081 1927 1911 1
  3082 1928 1911 1
  3083 1929 1912 1
  3084 1930 1914 1
  3085 1931 1916 1
  3086 1932 1918 1
  3087 1933 1922 1
  3088 1934 1925 1
  3089 1935 1926 1
  3090 1957 1941 1
  3091 1958 1941 1
  3092 1959 1942 1
  3093 1960 1944 1
  3094 1961 1946 1
  3095 1962 1948 1
  3096 1963 1952 1
  3097 1964 1955 1
  3098 1965 1956 1
  3099 1987 1971 1
  3100 1988 1971 1
  3101 1989 1972 1
  3102 1990 1974 1
  3103 1991 1976 1
  3104 1992 1978 1
  3105 1993 1982 1
  3106 1994 1985 1
  3107 1995 1986 1
  3108 2020 2001 1
  3109 2021 2001 1
  3110 2022 2002 1
  3111 2023 2004 1
  3112 2024 2006 1
  3113 2025 2008 1
  3114 2026 2010 1
  3115 2027 2015 1
  3116 2054 2035 1
  3117 2055 2035 1
  3118 2056 2036 1
  3119 2057 2038 1
  3120 2058 2040 1
  3121 2059 2042 1
  3122 2060 2044 1
  3123 2061 2049 1
  3124 2085 2069 1
  3125 2086 2069 1
  3126 2087 2070 1
  3127 2088 2072 1
  3128 2089 2074 1
  3129 2090 2076 1
  3130 2091 2080 1
  3131 2092 2083 1
  3132 2093 2084 1
  3133 2118 2099 1
  3134 2119 2099 1
  3135 2120 2100 1
  3136 2121 2102 1
  3137 2122 2104 1
  3138 2123 2106 1
  3139 2124 2108 1
  3140 2125 2113 1
  3141 2151 2133 1
  3142 2152 2133 1
  3143 2153 2134 1
  3144 2154 2136 1
  3145 2155 2138 1
  3146 2156 2140 1
  3147 2157 2142 1
  3148 2158 2148 1
  3149 2184 2166 1
  3150 2185 2166 1
  3151 2186 2167 1
  3152 2187 2169 1
  3153 2188 2171 1
  3154 2189 2173 1
  3155 2190 2175 1
  3156 2191 2181 1
  3157 2217 2199 1
  3158 2218 2199 1
  3159 2219 2200 1
  3160 2220 2202 1
  3161 2221 2204 1
  3162 2222 2206 1
  3163 2223 2208 1
  3164 2224 2214 1
  3165 2248 2232 1
  3166 2249 2232 1
  3167 2250 2233 1
  3168 2251 2235 1
  3169 2252 2237 1
  3170 2253 2239 1
  3171 2254 2243 1
  3172 2255 2246 1
  3173 2256 2247 1
  3174 2278 2262 1
  3175 2279 2262 1
  3176 2280 2263 1
  3177 2281 2265 1
  3178 2282 2267 1
  3179 2283 2269 1
  3180 2284 2273 1
  3181 2285 2276 1
  3182 2286 2277 1
  3183 2308 2292 1
  3184 2309 2292 1
  3185 2310 2293 1
  3186 2311 2295 1
  3187 2312 2297 1
  3188 2313 2299 1
  3189 2314 2306 1
  3190 2315 2307 1
  3191 2339 2323 1
  3192 2340 2323 1
  3193 2341 2324 1
  3194 2342 2326 1
  3195 2343 2328 1
  3196 2344 2330 1
  3197 2345 2337 1
  3198 2346 2338 1
  3199 2372 2354 1
  3200 2373 2354 1
  3201 2374 2355 1
  3202 2375 2357 1
  3203 2376 2359 1
  3204 2377 2361 1
  3205 2378 2363 1
  3206 2379 2369 1
  3207 2405 2387 1
  3208 2406 2387 1
  3209 2407 2388 1
  3210 2408 2390 1
  3211 2409 2392 1
  3212 2410 2394 1
  3213 2411 2396 1
  3214 2412 2402 1
  3215 2438 2420 1
  3216 2439 2420 1
  3217 2440 2421 1
  3218 2441 2423 1
  3219 2442 2425 1
  3220 2443 2427 1
  3221 2444 2429 1
  3222 2445 2435 1
  3223 2471 2453 1
  3224 2472 2453 1
  3225 2473 2454 1
  3226 2474 2456 1
  3227 2475 2458 1
  3228 2476 2460 1
  3229 2477 2462 1
  3230 2478 2468 1
  3231 2502 2486 1
  3232 2503 2486 1
  3233 2504 2487 1
  3234 2505 2489 1
  3235 2506 2491 1
  3236 2507 2493 1
  3237 2508 2500 1
  3238 2509 2501 1
  3239 2533 2517 1
  3240 2534 2517 1
  3241 2535 2518 1
  3242 2536 2520 1
  3243 2537 2522 1
  3244 2538 2524 1
  3245 2539 2531 1
  3246 2540 2532 1
  3247 2567 2548 1
  3248 2568 2548 1
  3249 2569 2549 1
  3250 2570 2551 1
  3251 2571 2553 1
  3252 2572 2555 1
  3253 2573 2557 1
  3254 2574 2562 1
  3255 2600 2582 1
  3256 2601 2582 1
  3257 2602 2583 1
  3258 2603 2585 1
  3259 2604 2587 1
  3260 2605 2589 1
  3261 2606 2591 1
  3262 2607 2597 1
  3263 2631 2615 1
  3264 2632 2615 1
  3265 2633 2616 1
  3266 2634 2618 1
  3267 2635 2620 1
  3268 2636 2622 1
  3269 2637 2629 1
  3270 2638 2630 1
  3271 2664 2646 1
  3272 2665 2646 1
  3273 2666 2647 1
  3274 2667 2649 1
  3275 2668 2651 1
  3276 2669 2653 1
  3277 2670 2655 1
  3278 2671 2661 1
  3279 2698 2679 1
  3280 2699 2679 1
  3281 2700 2680 1
  3282 2701 2682 1
  3283 2702 2684 1
  3284 2703 2686 1
  3285 2704 2688 1
  3286 2705 2693 1
  3287 2729 2713 1
  3288 2730 2713 1
  3289 2731 2714 1
  3290 2732 2716 1
  3291 2733 2718 1
  3292 2734 2720 1
  3293 2735 2724 1
  3294 2736 2727 1
  3295 2737 2728 1
  3296 2761 2743 1
  3297 2762 2743 1
  3298 2763 2744 1
  3299 2764 2746 1
  3300 2765 2748 1
  3301 2766 2750 1
  3302 2767 2752 1
  3303 2768 2758 1
  3304 2795 2776 1
  3305 2796 2776 1
  3306 2797 2777 1
  3307 2798 2779 1
  3308 2799 2781 1
  3309 2800 2783 1
  3310 2801 2785 1
  3311 2802 2790 1
  3312 2828 2810 1
  3313 2829 2810 1
  3314 2830 2811 1
  3315 2831 2813 1
  3316 2832 2815 1
  3317 2833 2817 1
  3318 2834 2819 1
  3319 2835 2825 1
  3320 2862 2843 1
  3321 2863 2843 1
  3322 2864 2844 1
  3323 2865 2846 1
  3324 2866 2848 1
  3325 2867 2850 1
  3326 2868 2852 1
  3327 2869 2857 1
  3328 2893 2877 1
  3329 2894 2877 1
  3330 2895 2878 1
  3331 2896 2880 1
  3332 2897 2882 1
  3333 2898 2884 1
  3334 2899 2888 1
  3335 2900 2891 1
  3336 2901 2892 1
  3337 2923 2907 1
  3338 2924 2907 1
  3339 2925 2908 1
  3340 2926 2910 1
  3341 2927 2912 1
  3342 2928 2914 1
  3343 2929 2921 1
  3344 2930 2922 1
  3345 2954 2938 1
  3346 2955 2938 1
  3347 2956 2939 1
  3348 2957 2941 1
  3349 2958 2943 1
  3350 2959 2945 1
  3351 2960 2949 1
  3352 2961 2952 1
  3353 2962 2953 1
  3354 2987 2968 1
  3355 2988 2968 1
  3356 2989 2969 1
  3357 2990 2971 1
  3358 2991 2973 1
  3359 2992 2975 1
  3360 2993 2977 1
  3361 2994 2982 1
  3362 3021 3002 1
  3363 3022 3002 1
  3364 3023 3003 1
  3365 3024 3005 1
  3366 3025 3007 1
  3367 3026 3009 1
  3368 3027 3011 1
  3369 3028 3016 1
  3370 3054 3036 1
  3371 3055 3036 1
  3372 3056 3037 1
  3373 3057 3039 1
  3374 3058 3041 1
  3375 3059 3043 1
  3376 3060 3045 1
  3377 3061 3051 1
  3378 3085 3069 1
  3379 3086 3069 1
  3380 3087 3070 1
  3381 3088 3072 1
  3382 3089 3074 1
  3383 3090 3076 1
  3384 3091 3080 1
  3385 3092 3083 1
  3386 3093 3084 1
  3387 3118 3099 1
  3388 3119 3099 1
  3389 3120 3100 1
  3390 3121 3102 1
  3391 3122 3104 1
  3392 3123 3106 1
  3393 3124 3108 1
  3394 3125 3113 1
  3395 3151 3133 1
  3396 3152 3133 1
  3397 3153 3134 1
  3398 3154 3136 1
  3399 3155 3138 1
  3400 3156 3140 1
  3401 3157 3142 1
  3402 3158 3148 1
  3403 3185 3166 1
  3404 3186 3166 1
  3405 3187 3167 1
  3406 3188 3169 1
  3407 3189 3171 1
  3408 3190 3173 1
  3409 3191 3175 1
  3410 3192 3180 1
  3411 3218 3200 1
  3412 3219 3200 1
  3413 3220 3201 1
  3414 3221 3203 1
  3415 3222 3205 1
  3416 3223 3207 1
  3417 3224 3209 1
  3418 3225 3215 1
  3419 3252 3233 1
  3420 3253 3233 1
  3421 3254 3234 1
  3422 3255 3236 1
  3423 3256 3238 1
  3424 3257 3240 1
  3425 3258 3242 1
  3426 3259 3247 1
  3427 3285 3267 1
  3428 3286 3267 1
  3429 3287 3268 1
  3430 3288 3270 1
  3431 3289 3272 1
  3432 3290 3274 1
  3433 3291 3276 1
  3434 3292 3282 1
  3435 3318 3300 1
  3436 3319 3300 1
  3437 3320 3301 1
  3438 3321 3303 1
  3439 3322 3305 1
  3440 3323 3307 1
  3441 3324 3309 1
  3442 3325 3315 1
  3443 3352 3333 1
  3444 3353 3333 1
  3445 3354 3334 1
  3446 3355 3336 1
  3447 3356 3338 1
  3448 3357 3340 1
  3449 3358 3342 1
  3450 3359 3347 1
  3451 3385 3367 1
  3452 3386 3367 1
  3453 3387 3368 1
  3454 3388 3370 1
  3455 3389 3372 1
  3456 3390 3374 1
  3457 3391 3376 1
  3458 3392 3382 1
  3459 3416 3400 1
  3460 3417 3400 1
  3461 3418 3401 1
  3462 3419 3403 1
  3463 3420 3405 1
  3464 3421 3407 1
  3465 3422 3411 1
  3466 3423 3414 1
  3467 3424 3415 1
  3468 3446 3430 1
  3469 3447 3430 1
  3470 3448 3431 1
  3471 3449 3433 1
  3472 3450 3435 1
  3473 3451 3437 1
  3474 3452 3441 1
  3475 3453 3444 1
  3476 3454 3445 1
  3477 3476 3460 1
  3478 3477 3460 1
  3479 3478 3461 1
  3480 3479 3463 1
  3481 3480 3465 1
  3482 3481 3467 1
  3483 3482 3474 1
  3484 3483 3475 1
  3485   29   18 1
  3486   30   18 1
  3487   64   53 1
  3488   65   53 1
  3489  158  147 1
  3490  159  147 1
  3491  249  238 1
  3492  250  238 1
  3493  283  272 1
  3494  284  272 1
  3495  317  306 1
  3496  318  306 1
  3497  351  340 1
  3498  352  340 1
  3499  385  374 1
  3500  386  374 1
  3501  416  405 1
  3502  417  405 1
  3503  483  472 1
  3504  484  472 1
  3505  517  506 1
  3506  518  506 1
  3507  551  540 1
  3508  552  540 1
  3509  615  604 1
  3510  616  604 1
  3511  805  794 1
  3512  806  794 1
  3513  836  825 1
  3514  837  825 1
  3515  867  856 1
  3516  868  856 1
  3517  901  890 1
  3518  902  890 1
  3519  965  954 1
  3520  966  954 1
  3521  996  985 1
  3522  997  985 1
  3523 1030 1019 1
  3524 1031 1019 1
  3525 1064 1053 1
  3526 1065 1053 1
  3527 1128 1117 1
  3528 1129 1117 1
  3529 1162 1151 1
  3530 1163 1151 1
  3531 1322 1311 1
  3532 1323 1311 1
  3533 1383 1372 1
  3534 1384 1372 1
  3535 1414 1403 1
  3536 1415 1403 1
  3537 1478 1467 1
  3538 1479 1467 1
  3539 1512 1501 1
  3540 1513 1501 1
  3541 1645 1634 1
  3542 1646 1634 1
  3543 1676 1665 1
  3544 1677 1665 1
  3545 1715 1704 1
  3546 1716 1704 1
  3547 1747 1736 1
  3548 1748 1736 1
  3549 1871 1860 1
  3550 1872 1860 1
  3551 2028 2017 1
  3552 2029 2017 1
  3553 2062 2051 1
  3554 2063 2051 1
  3555 2126 2115 1
  3556 2127 2115 1
  3557 2316 2305 1
  3558 2317 2305 1
  3559 2347 2336 1
  3560 2348 2336 1
  3561 2510 2499 1
  3562 2511 2499 1
  3563 2541 2530 1
  3564 2542 2530 1
  3565 2575 2564 1
  3566 2576 2564 1
  3567 2639 2628 1
  3568 2640 2628 1
  3569 2706 2695 1
  3570 2707 2695 1
  3571 2803 2792 1
  3572 2804 2792 1
  3573 2870 2859 1
  3574 2871 2859 1
  3575 2931 2920 1
  3576 2932 2920 1
  3577 2995 2984 1
  3578 2996 2984 1
  3579 3029 3018 1
  3580 3030 3018 1
  3581 3126 3115 1
  3582 3127 3115 1
  3583 3193 3182 1
  3584 3194 3182 1
  3585 3260 3249 1
  3586 3261 3249 1
  3587 3360 3349 1
  3588 3361 3349 1
  3589 3484 3473 1
  3590 3485 3473 1
  3591 2836 2816 1
  3592 1839 1820 1
  3593 1936 1917 1
  3594 2225 2205 1
  3595 1288 1268 1
  3596 3195 3172 1
  3597  998  978 1
  3598  714  694 1
  3599 1066 1043 1
  3600 3226 3206 1
  3601  617  594 1
  3602 1324 1301 1
  3603 1032 1009 1
  3604 1904 1884 1
  3605 2512 2492 1
  3606 2128 2105 1
  3607 3094 3075 1
  3608 2413 2393 1
  3609  353  330 1
  3610 2543 2523 1
  3611 1873 1850 1
  3612 3455 3436 1
  3613 3062 3042 1
  3614  190  171 1
  3615  319  296 1
  3616 3486 3466 1
  3617 1354 1335 1
  3618 2159 2139 1
  3619 1194 1175 1
  3620 1164 1141 1
  3621 2769 2749 1
  3622 1416 1396 1
  3623 3293 3273 1
  3624 3425 3406 1
  3625 1996 1977 1
  3626 1779 1760 1
  3627 3362 3339 1
  3628  934  914 1
  3629 2064 2041 1
  3630 1717 1694 1
  3631 1647 1624 1
  3632   66   43 1
  3633 2738 2719 1
  3634  129  110 1
  3635 2805 2782 1
  3636 2380 2360 1
  3637 2577 2554 1
  3638 1749 1729 1
  3639 2933 2913 1
  3640 3128 3105 1
  3641  418  398 1
  3642  967  947 1
  3643 2287 2268 1
  3644 3262 3239 1
  3645  681  668 1
  3646  682  668 1
  3647 1447 1434 1
  3648 1448 1434 1
  3649 1905 1891 1
  3650 1906 1891 1
  3651 2226 2212 1
  3652 2227 2212 1
  3653 1225 1212 1
  3654 1226 1212 1
  3655 3063 3049 1
  3656 3064 3049 1
  3657 2672 2659 1
  3658 2673 2659 1
  3659 1611 1598 1
  3660 1612 1598 1
  3661 2446 2433 1
  3662 2447 2433 1
  3663  935  921 1
  3664  936  921 1
  3665 1545 1532 1
  3666 1546 1532 1
  3667 2381 2367 1
  3668 2382 2367 1
  3669 2608 2595 1
  3670 2609 2595 1
  3671  715  701 1
  3672  716  701 1
  3673 2160 2146 1
  3674 2161 2146 1
  3675   97   84 1
  3676   98   84 1
  3677 3227 3213 1
  3678 3228 3213 1
  3679  648  635 1
  3680  649  635 1
  3681 3294 3280 1
  3682 3295 3280 1
  3683 3159 3146 1
  3684 3160 3146 1
  3685 2479 2466 1
  3686 2480 2466 1
  3687 3393 3380 1
  3688 3394 3380 1
  3689 1578 1565 1
  3690 1579 1565 1
  3691 2414 2400 1
  3692 2415 2400 1
  3693 2837 2823 1
  3694 2838 2823 1
  3695 3326 3313 1
  3696 3327 3313 1
  3697  449  436 1
  3698  450  436 1
  3699 2192 2179 1
  3700 2193 2179 1
  3701 2770 2756 1
  3702 2771 2756 1
  3703 1289 1275 1
  3704 1290 1275 1
  3705 1096 1077 1
  3706  387  364 1
  3707  285  262 1
  3708  903  880 1
  3709 1257 1238 1
  3710  776  757 1
  3711 1227 1205 1
  3712  485  462 1
  3713 2610 2588 1
  3714 1684 1683 1
  3715 1685 1683 1
  3716 1686 1683 1
  3717  650  628 1
  3718 2318 2298 1
  3719  807  787 1
  3720 2030 2007 1
  3721 3395 3373 1
  3722 1580 1558 1
  3723  519  496 1
  3724  220  201 1
  3725 1130 1107 1
  3726 2448 2426 1
  3727   31    1 1
  3728 2349 2329 1
  3729 1385 1365 1
  3730  160  140 1
  3731 2094 2075 1
  3732   99   77 1
  3733  553  530 1
  3734  683  661 1
  3735  251  231 1
  3736  869  849 1
  3737 1547 1525 1
  3738  583  564 1
  3739 2708 2685 1
  3740 1809 1790 1
  3741  451  429 1
  3742 1966 1947 1
  3743 3487 3464 1
  3744  838  818 1
  3745 1678 1658 1
  3746 2872 2849 1
  3747 1449 1427 1
  3748 2902 2883 1
  3749  746  727 1
  3750 2674 2652 1
  3751 1514 1491 1
  3752 1613 1591 1
  3753 2481 2459 1
  3754 2641 2621 1
  3755   32    8 1
  3756 2194 2172 1
  3757 2963 2944 1
  3758 3161 3139 1
  3759 2997 2974 1
  3760 1480 1460 1
  3761 2257 2238 1
  3762 3328 3306 1
  3763 3031 3008 1
  3764 1718 1687 1
@<TRIPOS>SUBSTRUCTURE
     1   G1        3 RESIDUE           4 X       G     1 ROOT
     2   G2       38 RESIDUE           4 X       G     2
     3   A3       72 RESIDUE           4 X       A     2
     4   U4      105 RESIDUE           4 X       U     2
     5   C5      135 RESIDUE           4 X       C     2
     6   U6      166 RESIDUE           4 X       U     2
     7   U7      196 RESIDUE           4 X       U     2
     8   C8      226 RESIDUE           4 X       C     2
     9   G9      257 RESIDUE           4 X       G     2
    10   G10     291 RESIDUE           4 X       G     2
    11   G11     325 RESIDUE           4 X       G     2
    12   G12     359 RESIDUE           4 X       G     2
    13   C13     393 RESIDUE           4 X       C     2
    14   A14     424 RESIDUE           4 X       A     2
    15   G15     457 RESIDUE           4 X       G     2
    16   G16     491 RESIDUE           4 X       G     2
    17   G17     525 RESIDUE           4 X       G     2
    18   U18     559 RESIDUE           4 X       U     2
    19   G19     589 RESIDUE           4 X       G     2
    20   A20     623 RESIDUE           4 X       A     2
    21   A21     656 RESIDUE           4 X       A     2
    22   A22     689 RESIDUE           4 X       A     2
    23   U23     722 RESIDUE           4 X       U     2
    24   U24     752 RESIDUE           4 X       U     2
    25   C25     782 RESIDUE           4 X       C     2
    26   C26     813 RESIDUE           4 X       C     2
    27   C27     844 RESIDUE           4 X       C     2
    28   G28     875 RESIDUE           4 X       G     2
    29   A29     909 RESIDUE           4 X       A     2
    30   C30     942 RESIDUE           4 X       C     2
    31   C31     973 RESIDUE           4 X       C     2
    32   G32    1004 RESIDUE           4 X       G     2
    33   G33    1038 RESIDUE           4 X       G     2
    34   U34    1072 RESIDUE           4 X       U     2
    35   G35    1102 RESIDUE           4 X       G     2
    36   G36    1136 RESIDUE           4 X       G     2
    37   U37    1170 RESIDUE           4 X       U     2
    38   A38    1200 RESIDUE           4 X       A     2
    39   U39    1233 RESIDUE           4 X       U     2
    40   A40    1263 RESIDUE           4 X       A     2
    41   G41    1296 RESIDUE           4 X       G     2
    42   U42    1330 RESIDUE           4 X       U     2
    43   C43    1360 RESIDUE           4 X       C     2
    44   C44    1391 RESIDUE           4 X       C     2
    45   A45    1422 RESIDUE           4 X       A     2
    46   C46    1455 RESIDUE           4 X       C     2
    47   G47    1486 RESIDUE           4 X       G     2
    48   A48    1520 RESIDUE           4 X       A     2
    49   A49    1553 RESIDUE           4 X       A     2
    50   A50    1586 RESIDUE           4 X       A     2
    51   G51    1619 RESIDUE           4 X       G     2
    52   C52    1653 RESIDUE           4 X       C     2
    53   U53    1679 RESIDUE           4 X       U     1
    54   G57    1689 RESIDUE           4 Y       G     1 ROOT
    55   C58    1724 RESIDUE           4 Y       C     2
    56   U59    1755 RESIDUE           4 Y       U     2
    57   U60    1785 RESIDUE           4 Y       U     2
    58   U61    1815 RESIDUE           4 Y       U     2
    59   G62    1845 RESIDUE           4 Y       G     2
    60   A63    1879 RESIDUE           4 Y       A     2
    61   U64    1912 RESIDUE           4 Y       U     2
    62   U65    1942 RESIDUE           4 Y       U     2
    63   U66    1972 RESIDUE           4 Y       U     2
    64   G67    2002 RESIDUE           4 Y       G     2
    65   G68    2036 RESIDUE           4 Y       G     2
    66   U69    2070 RESIDUE           4 Y       U     2
    67   G70    2100 RESIDUE           4 Y       G     2
    68   A71    2134 RESIDUE           4 Y       A     2
    69   A72    2167 RESIDUE           4 Y       A     2
    70   A73    2200 RESIDUE           4 Y       A     2
    71   U74    2233 RESIDUE           4 Y       U     2
    72   U75    2263 RESIDUE           4 Y       U     2
    73   C76    2293 RESIDUE           4 Y       C     2
    74   C77    2324 RESIDUE           4 Y       C     2
    75   A78    2355 RESIDUE           4 Y       A     2
    76   A79    2388 RESIDUE           4 Y       A     2
    77   A80    2421 RESIDUE           4 Y       A     2
    78   A81    2454 RESIDUE           4 Y       A     2
    79   C82    2487 RESIDUE           4 Y       C     2
    80   C83    2518 RESIDUE           4 Y       C     2
    81   G84    2549 RESIDUE           4 Y       G     2
    82   A85    2583 RESIDUE           4 Y       A     2
    83   C86    2616 RESIDUE           4 Y       C     2
    84   A87    2647 RESIDUE           4 Y       A     2
    85   G88    2680 RESIDUE           4 Y       G     2
    86   U89    2714 RESIDUE           4 Y       U     2
    87   A90    2744 RESIDUE           4 Y       A     2
    88   G91    2777 RESIDUE           4 Y       G     2
    89   A92    2811 RESIDUE           4 Y       A     2
    90   G93    2844 RESIDUE           4 Y       G     2
    91   U94    2878 RESIDUE           4 Y       U     2
    92   C95    2908 RESIDUE           4 Y       C     2
    93   U96    2939 RESIDUE           4 Y       U     2
    94   G97    2969 RESIDUE           4 Y       G     2
    95   G98    3003 RESIDUE           4 Y       G     2
    96   A99    3037 RESIDUE           4 Y       A     2
    97   U100   3070 RESIDUE           4 Y       U     2
    98   G101   3100 RESIDUE           4 Y       G     2
    99   A102   3134 RESIDUE           4 Y       A     2
   100   G103   3167 RESIDUE           4 Y       G     2
   101   A104   3201 RESIDUE           4 Y       A     2
   102   G105   3234 RESIDUE           4 Y       G     2
   103   A106   3268 RESIDUE           4 Y       A     2
   104   A107   3301 RESIDUE           4 Y       A     2
   105   G108   3334 RESIDUE           4 Y       G     2
   106   A109   3368 RESIDUE           4 Y       A     2
   107   U110   3401 RESIDUE           4 Y       U     2
   108   U111   3431 RESIDUE           4 Y       U     2
   109   C112   3461 RESIDUE           4 Y       C     1
