1-deazapurine
 OpenBabel12072022113D
libRbt.so/2013.1/901 2013/11/27
 10 11  0  0  0  0  0  0  0  0999 V2000
  -30.3055   16.6125  -15.2864 C   0  0  0  0  0  0  0  0  0  0  0  0
  -29.8703   16.5358  -16.6129 C   0  0  0  0  0  0  0  0  0  0  0  0
  -30.1925   17.6082  -17.4505 C   0  0  0  0  0  0  0  0  0  0  0  0
  -30.9157   18.6590  -16.9013 C   0  0  0  0  0  0  0  0  0  0  0  0
  -31.0822   19.5432  -17.9259 N   0  0  0  0  0  0  0  0  0  0  0  0
  -31.5704   20.4226  -17.8595 H   0  0  0  0  0  0  0  0  0  0  0  0
  -30.4719   19.0140  -19.0302 C   0  0  0  0  0  0  0  0  0  0  0  0
  -29.9236   17.8436  -18.7771 N   0  0  0  0  0  0  0  0  0  0  0  0
  -31.3628   18.7944  -15.6401 N   0  0  0  0  0  0  0  0  0  0  0  0
  -31.0254   17.7305  -14.8683 C   0  0  0  0  0  0  0  0  0  0  0  0
  1  2  2  0  0  0  0
  1 10  1  0  0  0  0
  2  3  1  0  0  0  0
  3  4  2  0  0  0  0
  3  8  1  0  0  0  0
  4  5  1  0  0  0  0
  4  9  1  0  0  0  0
  5  6  1  0  0  0  0
  5  7  1  0  0  0  0
  7  8  2  0  0  0  0
  9 10  2  0  0  0  0
M  END
>  <CHROM.0>
-59.68980738,-171.04261845,-67.17996713,-42.96551417,-174.81857313,-64.37026757
-67.79599168,-60.05811506,-169.19959484

>  <CHROM.1>
-30.58636571,18.07362350,-16.95999586,-1.65416004,1.02295841,-1.06181557

>  <Name>
1-deazapurine

>  <RI>
0

>  <Rbt.Current_Directory>
/home/fstefaniak/projects/zuza/docking/adenine/4TZX

>  <Rbt.Executable>
rbdock ($Id: //depot/dev/client3/rdock/2013.1/src/exe/rbdock.cxx#4 $)

>  <Rbt.Library>
libRbt.so (2013.1, Build901 2013/11/27)

>  <Rbt.Parameter_File>
/home/fstefaniak/progs/rDock//data/scripts/dock_solv.prm

>  <Rbt.Receptor>
4tzx.prm

>  <SCORE>
-53.9696

>  <SCORE.INTER>
-32.8455

>  <SCORE.INTER.CONST>
1

>  <SCORE.INTER.POLAR>
-3.20777

>  <SCORE.INTER.ROT>
0

>  <SCORE.INTER.SOLV>
10.5355

>  <SCORE.INTER.VDW>
-18.3162

>  <SCORE.INTER.norm>
-3.64949

>  <SCORE.INTRA>
0

>  <SCORE.INTRA.DIHEDRAL>
0

>  <SCORE.INTRA.DIHEDRAL.0>
0

>  <SCORE.INTRA.POLAR>
0

>  <SCORE.INTRA.POLAR.0>
0

>  <SCORE.INTRA.REPUL>
0

>  <SCORE.INTRA.REPUL.0>
0

>  <SCORE.INTRA.SOLV>
0

>  <SCORE.INTRA.SOLV.lig_0>
-10.015

>  <SCORE.INTRA.VDW>
0

>  <SCORE.INTRA.VDW.0>
0

>  <SCORE.INTRA.norm>
0

>  <SCORE.RESTR>
0

>  <SCORE.RESTR.CAVITY>
0

>  <SCORE.RESTR.norm>
0

>  <SCORE.SYSTEM>
-21.1241

>  <SCORE.SYSTEM.CONST>
0

>  <SCORE.SYSTEM.DIHEDRAL>
5.03617

>  <SCORE.SYSTEM.POLAR>
-3.04389

>  <SCORE.SYSTEM.SOLV>
-0.0435983

>  <SCORE.SYSTEM.VDW>
-5.60066

>  <SCORE.SYSTEM.norm>
-2.34713

>  <SCORE.heavy>
9

>  <SCORE.norm>
-5.99662

$$$$
1-deazapurine
 OpenBabel12072022113D
libRbt.so/2013.1/901 2013/11/27
 10 11  0  0  0  0  0  0  0  0999 V2000
  -30.2328   16.5838  -15.2942 C   0  0  0  0  0  0  0  0  0  0  0  0
  -29.8489   16.4821  -16.6348 C   0  0  0  0  0  0  0  0  0  0  0  0
  -30.1874   17.5472  -17.4754 C   0  0  0  0  0  0  0  0  0  0  0  0
  -30.8746   18.6159  -16.9149 C   0  0  0  0  0  0  0  0  0  0  0  0
  -31.0673   19.4879  -17.9454 N   0  0  0  0  0  0  0  0  0  0  0  0
  -31.5403   20.3752  -17.8736 H   0  0  0  0  0  0  0  0  0  0  0  0
  -30.5065   18.9344  -19.0639 C   0  0  0  0  0  0  0  0  0  0  0  0
  -29.9654   17.7599  -18.8145 N   0  0  0  0  0  0  0  0  0  0  0  0
  -31.2720   18.7756  -15.6400 N   0  0  0  0  0  0  0  0  0  0  0  0
  -30.9207   17.7179  -14.8659 C   0  0  0  0  0  0  0  0  0  0  0  0
  1  2  2  0  0  0  0
  1 10  1  0  0  0  0
  2  3  1  0  0  0  0
  3  4  2  0  0  0  0
  3  8  1  0  0  0  0
  4  5  1  0  0  0  0
  4  9  1  0  0  0  0
  5  6  1  0  0  0  0
  5  7  1  0  0  0  0
  7  8  2  0  0  0  0
  9 10  2  0  0  0  0
M  END
>  <CHROM.0>
-60.84262799,-170.65203717,-66.33771733,-42.66149441,-177.55812037,-63.36836287
-66.43018176,-61.07285452,-168.41861238

>  <CHROM.1>
-30.55600011,18.02507734,-16.97734849,-1.60145298,1.05293961,-1.12160120

>  <Name>
1-deazapurine

>  <RI>
0

>  <Rbt.Current_Directory>
/home/fstefaniak/projects/zuza/docking/adenine/4TZX

>  <Rbt.Executable>
rbdock ($Id: //depot/dev/client3/rdock/2013.1/src/exe/rbdock.cxx#4 $)

>  <Rbt.Library>
libRbt.so (2013.1, Build901 2013/11/27)

>  <Rbt.Parameter_File>
/home/fstefaniak/progs/rDock//data/scripts/dock_solv.prm

>  <Rbt.Receptor>
4tzx.prm

>  <SCORE>
-53.8866

>  <SCORE.INTER>
-32.75

>  <SCORE.INTER.CONST>
1

>  <SCORE.INTER.POLAR>
-3.21069

>  <SCORE.INTER.ROT>
0

>  <SCORE.INTER.SOLV>
10.362

>  <SCORE.INTER.VDW>
-18.185

>  <SCORE.INTER.norm>
-3.63889

>  <SCORE.INTRA>
0

>  <SCORE.INTRA.DIHEDRAL>
0

>  <SCORE.INTRA.DIHEDRAL.0>
0

>  <SCORE.INTRA.POLAR>
0

>  <SCORE.INTRA.POLAR.0>
0

>  <SCORE.INTRA.REPUL>
0

>  <SCORE.INTRA.REPUL.0>
0

>  <SCORE.INTRA.SOLV>
0

>  <SCORE.INTRA.SOLV.lig_0>
-10.015

>  <SCORE.INTRA.VDW>
0

>  <SCORE.INTRA.VDW.0>
0

>  <SCORE.INTRA.norm>
0

>  <SCORE.RESTR>
0

>  <SCORE.RESTR.CAVITY>
0

>  <SCORE.RESTR.norm>
0

>  <SCORE.SYSTEM>
-21.1366

>  <SCORE.SYSTEM.CONST>
0

>  <SCORE.SYSTEM.DIHEDRAL>
4.92901

>  <SCORE.SYSTEM.POLAR>
-3.05024

>  <SCORE.SYSTEM.SOLV>
-0.0398864

>  <SCORE.SYSTEM.VDW>
-5.55333

>  <SCORE.SYSTEM.norm>
-2.34851

>  <SCORE.heavy>
9

>  <SCORE.norm>
-5.9874

$$$$
1-deazapurine
 OpenBabel12072022113D
libRbt.so/2013.1/901 2013/11/27
 10 11  0  0  0  0  0  0  0  0999 V2000
  -30.1078   16.7651  -15.1957 C   0  0  0  0  0  0  0  0  0  0  0  0
  -29.7050   16.6317  -16.5280 C   0  0  0  0  0  0  0  0  0  0  0  0
  -30.1086   17.6327  -17.4172 C   0  0  0  0  0  0  0  0  0  0  0  0
  -30.8736   18.6745  -16.9092 C   0  0  0  0  0  0  0  0  0  0  0  0
  -31.1164   19.4849  -17.9786 N   0  0  0  0  0  0  0  0  0  0  0  0
  -31.6505   20.3394  -17.9494 H   0  0  0  0  0  0  0  0  0  0  0  0
  -30.5078   18.9234  -19.0678 C   0  0  0  0  0  0  0  0  0  0  0  0
  -29.8890   17.8015  -18.7629 N   0  0  0  0  0  0  0  0  0  0  0  0
  -31.2932   18.8618  -15.6453 N   0  0  0  0  0  0  0  0  0  0  0  0
  -30.8769   17.8662  -14.8227 C   0  0  0  0  0  0  0  0  0  0  0  0
  1  2  2  0  0  0  0
  1 10  1  0  0  0  0
  2  3  1  0  0  0  0
  3  4  2  0  0  0  0
  3  8  1  0  0  0  0
  4  5  1  0  0  0  0
  4  9  1  0  0  0  0
  5  6  1  0  0  0  0
  5  7  1  0  0  0  0
  7  8  2  0  0  0  0
  9 10  2  0  0  0  0
M  END
>  <CHROM.0>
-59.40290194,-171.85510231,-66.23949860,-43.23306378,-176.16288726,-63.39126349
-66.25848080,-58.06304806,-168.58192547

>  <CHROM.1>
-30.51414725,18.10516333,-16.94326313,-1.56251729,0.98588434,-1.19897427

>  <Name>
1-deazapurine

>  <RI>
0

>  <Rbt.Current_Directory>
/home/fstefaniak/projects/zuza/docking/adenine/4TZX

>  <Rbt.Executable>
rbdock ($Id: //depot/dev/client3/rdock/2013.1/src/exe/rbdock.cxx#4 $)

>  <Rbt.Library>
libRbt.so (2013.1, Build901 2013/11/27)

>  <Rbt.Parameter_File>
/home/fstefaniak/progs/rDock//data/scripts/dock_solv.prm

>  <Rbt.Receptor>
4tzx.prm

>  <SCORE>
-53.8402

>  <SCORE.INTER>
-32.6982

>  <SCORE.INTER.CONST>
1

>  <SCORE.INTER.POLAR>
-3.20491

>  <SCORE.INTER.ROT>
0

>  <SCORE.INTER.SOLV>
10.3111

>  <SCORE.INTER.VDW>
-18.1528

>  <SCORE.INTER.norm>
-3.63313

>  <SCORE.INTRA>
0

>  <SCORE.INTRA.DIHEDRAL>
0

>  <SCORE.INTRA.DIHEDRAL.0>
0

>  <SCORE.INTRA.POLAR>
0

>  <SCORE.INTRA.POLAR.0>
0

>  <SCORE.INTRA.REPUL>
0

>  <SCORE.INTRA.REPUL.0>
0

>  <SCORE.INTRA.SOLV>
0

>  <SCORE.INTRA.SOLV.lig_0>
-10.015

>  <SCORE.INTRA.VDW>
0

>  <SCORE.INTRA.VDW.0>
0

>  <SCORE.INTRA.norm>
0

>  <SCORE.RESTR>
0

>  <SCORE.RESTR.CAVITY>
0

>  <SCORE.RESTR.norm>
0

>  <SCORE.SYSTEM>
-21.142

>  <SCORE.SYSTEM.CONST>
0

>  <SCORE.SYSTEM.DIHEDRAL>
4.76831

>  <SCORE.SYSTEM.POLAR>
-3.05132

>  <SCORE.SYSTEM.SOLV>
-0.0324238

>  <SCORE.SYSTEM.VDW>
-5.5022

>  <SCORE.SYSTEM.norm>
-2.34911

>  <SCORE.heavy>
9

>  <SCORE.norm>
-5.98224

$$$$
1-methyladenine
 OpenBabel12072022113D
libRbt.so/2013.1/901 2013/11/27
 13 14  0  0  0  0  0  0  0  0999 V2000
  -30.1035   18.0956  -19.2597 C   0  0  0  0  0  0  0  0  0  0  0  0
  -30.2926   17.7453  -17.8562 N   0  0  0  0  0  0  0  0  0  0  0  0
  -29.3098   17.0213  -17.1927 C   0  0  0  0  0  0  0  0  0  0  0  0
  -29.2542   16.7350  -15.9306 N   0  0  0  0  0  0  0  0  0  0  0  0
  -30.2860   17.2333  -15.1993 C   0  0  0  0  0  0  0  0  0  0  0  0
  -30.4931   17.0973  -13.9268 N   0  0  0  0  0  0  0  0  0  0  0  0
  -31.6737   17.8055  -13.7386 C   0  0  0  0  0  0  0  0  0  0  0  0
  -32.2233   18.3670  -14.7832 N   0  0  0  0  0  0  0  0  0  0  0  0
  -31.3549   18.0329  -15.7876 C   0  0  0  0  0  0  0  0  0  0  0  0
  -31.3503   18.2848  -17.1087 C   0  0  0  0  0  0  0  0  0  0  0  0
  -32.3645   19.0410  -17.6821 N   0  0  0  0  0  0  0  0  0  0  0  0
  -32.3091   18.9741  -18.7019 H   0  0  0  0  0  0  0  0  0  0  0  0
  -32.3033   20.0123  -17.3938 H   0  0  0  0  0  0  0  0  0  0  0  0
  1  2  1  0  0  0  0
  2  3  1  0  0  0  0
  2 10  1  0  0  0  0
  3  4  2  0  0  0  0
  4  5  1  0  0  0  0
  5  6  2  0  0  0  0
  5  9  1  0  0  0  0
  6  7  1  0  0  0  0
  7  8  2  0  0  0  0
  8  9  1  0  0  0  0
  9 10  2  0  0  0  0
 10 11  1  0  0  0  0
 11 12  1  0  0  0  0
 11 13  1  0  0  0  0
M  END
>  <CHROM.0>
-62.17249768,-62.96333628,-67.62295874,-42.45945219,-179.23161450,-63.68638042
-67.84046633,-59.83560609,-168.33195456

>  <CHROM.1>
10.95277817,-30.80291932,17.79600029,-16.28747674,-1.38743755,-0.55685940
1.78788625

>  <Name>
1-methyladenine

>  <RI>
0

>  <Rbt.Current_Directory>
/home/fstefaniak/projects/zuza/docking/adenine/4TZX

>  <Rbt.Executable>
rbdock ($Id: //depot/dev/client3/rdock/2013.1/src/exe/rbdock.cxx#4 $)

>  <Rbt.Library>
libRbt.so (2013.1, Build901 2013/11/27)

>  <Rbt.Parameter_File>
/home/fstefaniak/progs/rDock//data/scripts/dock_solv.prm

>  <Rbt.Receptor>
4tzx.prm

>  <SCORE>
-57.0161

>  <SCORE.INTER>
-36.5687

>  <SCORE.INTER.CONST>
1

>  <SCORE.INTER.POLAR>
-4.33659

>  <SCORE.INTER.ROT>
1

>  <SCORE.INTER.SOLV>
10.7226

>  <SCORE.INTER.VDW>
-17.7647

>  <SCORE.INTER.norm>
-3.32442

>  <SCORE.INTRA>
0.869156

>  <SCORE.INTRA.DIHEDRAL>
-0.000430956

>  <SCORE.INTRA.DIHEDRAL.0>
0.477737

>  <SCORE.INTRA.POLAR>
0.0117728

>  <SCORE.INTRA.POLAR.0>
-0.0117728

>  <SCORE.INTRA.REPUL>
0

>  <SCORE.INTRA.REPUL.0>
0

>  <SCORE.INTRA.SOLV>
0.00595956

>  <SCORE.INTRA.SOLV.lig_0>
-9.36054

>  <SCORE.INTRA.VDW>
0.826364

>  <SCORE.INTRA.VDW.0>
-0.0766114

>  <SCORE.INTRA.norm>
0.0790142

>  <SCORE.RESTR>
0

>  <SCORE.RESTR.CAVITY>
0

>  <SCORE.RESTR.norm>
0

>  <SCORE.SYSTEM>
-21.3166

>  <SCORE.SYSTEM.CONST>
0

>  <SCORE.SYSTEM.DIHEDRAL>
4.76437

>  <SCORE.SYSTEM.POLAR>
-3.04381

>  <SCORE.SYSTEM.SOLV>
-0.0141603

>  <SCORE.SYSTEM.VDW>
-5.64844

>  <SCORE.SYSTEM.norm>
-1.93787

>  <SCORE.heavy>
11

>  <SCORE.norm>
-5.18328

$$$$
1-methyladenine
 OpenBabel12072022113D
libRbt.so/2013.1/901 2013/11/27
 13 14  0  0  0  0  0  0  0  0999 V2000
  -30.1231   18.0987  -19.2734 C   0  0  0  0  0  0  0  0  0  0  0  0
  -30.3124   17.7502  -17.8694 N   0  0  0  0  0  0  0  0  0  0  0  0
  -29.3263   17.0337  -17.2027 C   0  0  0  0  0  0  0  0  0  0  0  0
  -29.2711   16.7503  -15.9399 N   0  0  0  0  0  0  0  0  0  0  0  0
  -30.3072   17.2439  -15.2115 C   0  0  0  0  0  0  0  0  0  0  0  0
  -30.5157   17.1092  -13.9390 N   0  0  0  0  0  0  0  0  0  0  0  0
  -31.7008   17.8106  -13.7543 C   0  0  0  0  0  0  0  0  0  0  0  0
  -32.2522   18.3665  -14.8010 N   0  0  0  0  0  0  0  0  0  0  0  0
  -31.3800   18.0356  -15.8033 C   0  0  0  0  0  0  0  0  0  0  0  0
  -31.3747   18.2847  -17.1248 C   0  0  0  0  0  0  0  0  0  0  0  0
  -32.3925   19.0335  -17.7016 N   0  0  0  0  0  0  0  0  0  0  0  0
  -32.3309   18.9702  -18.7213 H   0  0  0  0  0  0  0  0  0  0  0  0
  -32.3417   20.0044  -17.4101 H   0  0  0  0  0  0  0  0  0  0  0  0
  1  2  1  0  0  0  0
  2  3  1  0  0  0  0
  2 10  1  0  0  0  0
  3  4  2  0  0  0  0
  4  5  1  0  0  0  0
  5  6  2  0  0  0  0
  5  9  1  0  0  0  0
  6  7  1  0  0  0  0
  7  8  2  0  0  0  0
  8  9  1  0  0  0  0
  9 10  2  0  0  0  0
 10 11  1  0  0  0  0
 11 12  1  0  0  0  0
 11 13  1  0  0  0  0
M  END
>  <CHROM.0>
-62.97977758,-62.60701021,-63.81581103,-43.65080426,-57.97315442,-61.97198760
-65.43619975,-61.57619760,-168.93113542

>  <CHROM.1>
10.55491597,-30.82568942,17.80109799,-16.30163899,-1.38696620,-0.55053077
1.78601614

>  <Name>
1-methyladenine

>  <RI>
0

>  <Rbt.Current_Directory>
/home/fstefaniak/projects/zuza/docking/adenine/4TZX

>  <Rbt.Executable>
rbdock ($Id: //depot/dev/client3/rdock/2013.1/src/exe/rbdock.cxx#4 $)

>  <Rbt.Library>
libRbt.so (2013.1, Build901 2013/11/27)

>  <Rbt.Parameter_File>
/home/fstefaniak/progs/rDock//data/scripts/dock_solv.prm

>  <Rbt.Receptor>
4tzx.prm

>  <SCORE>
-56.8713

>  <SCORE.INTER>
-36.5753

>  <SCORE.INTER.CONST>
1

>  <SCORE.INTER.POLAR>
-4.37561

>  <SCORE.INTER.ROT>
1

>  <SCORE.INTER.SOLV>
10.7292

>  <SCORE.INTER.VDW>
-17.6412

>  <SCORE.INTER.norm>
-3.32502

>  <SCORE.INTRA>
0.882454

>  <SCORE.INTRA.DIHEDRAL>
-0.000336139

>  <SCORE.INTRA.DIHEDRAL.0>
0.477737

>  <SCORE.INTRA.POLAR>
0.0117728

>  <SCORE.INTRA.POLAR.0>
-0.0117728

>  <SCORE.INTRA.REPUL>
0

>  <SCORE.INTRA.REPUL.0>
0

>  <SCORE.INTRA.SOLV>
0.00600278

>  <SCORE.INTRA.SOLV.lig_0>
-9.36054

>  <SCORE.INTRA.VDW>
0.839593

>  <SCORE.INTRA.VDW.0>
-0.0766114

>  <SCORE.INTRA.norm>
0.0802231

>  <SCORE.RESTR>
0

>  <SCORE.RESTR.CAVITY>
0

>  <SCORE.RESTR.norm>
0

>  <SCORE.SYSTEM>
-21.1785

>  <SCORE.SYSTEM.CONST>
0

>  <SCORE.SYSTEM.DIHEDRAL>
4.19096

>  <SCORE.SYSTEM.POLAR>
-3.02944

>  <SCORE.SYSTEM.SOLV>
0.181592

>  <SCORE.SYSTEM.VDW>
-5.47839

>  <SCORE.SYSTEM.norm>
-1.92532

>  <SCORE.heavy>
11

>  <SCORE.norm>
-5.17012

$$$$
1-methyladenine
 OpenBabel12072022113D
libRbt.so/2013.1/901 2013/11/27
 13 14  0  0  0  0  0  0  0  0999 V2000
  -30.1191   18.0916  -19.2860 C   0  0  0  0  0  0  0  0  0  0  0  0
  -30.2945   17.7452  -17.8797 N   0  0  0  0  0  0  0  0  0  0  0  0
  -29.3084   17.0170  -17.2257 C   0  0  0  0  0  0  0  0  0  0  0  0
  -29.2404   16.7329  -15.9637 N   0  0  0  0  0  0  0  0  0  0  0  0
  -30.2612   17.2384  -15.2221 C   0  0  0  0  0  0  0  0  0  0  0  0
  -30.4549   17.1061  -13.9471 N   0  0  0  0  0  0  0  0  0  0  0  0
  -31.6293   17.8212  -13.7471 C   0  0  0  0  0  0  0  0  0  0  0  0
  -32.1875   18.3837  -14.7867 N   0  0  0  0  0  0  0  0  0  0  0  0
  -31.3321   18.0428  -15.8001 C   0  0  0  0  0  0  0  0  0  0  0  0
  -31.3408   18.2920  -17.1216 C   0  0  0  0  0  0  0  0  0  0  0  0
  -32.3571   19.0527  -17.6853 N   0  0  0  0  0  0  0  0  0  0  0  0
  -32.3105   18.9873  -18.7057 H   0  0  0  0  0  0  0  0  0  0  0  0
  -32.2900   20.0233  -17.3959 H   0  0  0  0  0  0  0  0  0  0  0  0
  1  2  1  0  0  0  0
  2  3  1  0  0  0  0
  2 10  1  0  0  0  0
  3  4  2  0  0  0  0
  4  5  1  0  0  0  0
  5  6  2  0  0  0  0
  5  9  1  0  0  0  0
  6  7  1  0  0  0  0
  7  8  2  0  0  0  0
  8  9  1  0  0  0  0
  9 10  2  0  0  0  0
 10 11  1  0  0  0  0
 11 12  1  0  0  0  0
 11 13  1  0  0  0  0
M  END
>  <CHROM.0>
-60.79338847,-61.29980840,-62.29770493,-43.89375730,-57.81743344,-66.10520750
-64.75391974,-57.98968804,-168.99598683

>  <CHROM.1>
10.67027161,-30.78701855,17.80183125,-16.30552341,-1.39883820,-0.56466140
1.77980918

>  <Name>
1-methyladenine

>  <RI>
0

>  <Rbt.Current_Directory>
/home/fstefaniak/projects/zuza/docking/adenine/4TZX

>  <Rbt.Executable>
rbdock ($Id: //depot/dev/client3/rdock/2013.1/src/exe/rbdock.cxx#4 $)

>  <Rbt.Library>
libRbt.so (2013.1, Build901 2013/11/27)

>  <Rbt.Parameter_File>
/home/fstefaniak/progs/rDock//data/scripts/dock_solv.prm

>  <Rbt.Receptor>
4tzx.prm

>  <SCORE>
-56.8424

>  <SCORE.INTER>
-36.593

>  <SCORE.INTER.CONST>
1

>  <SCORE.INTER.POLAR>
-4.35231

>  <SCORE.INTER.ROT>
1

>  <SCORE.INTER.SOLV>
10.7172

>  <SCORE.INTER.VDW>
-17.7267

>  <SCORE.INTER.norm>
-3.32664

>  <SCORE.INTRA>
0.878617

>  <SCORE.INTRA.DIHEDRAL>
-0.000363748

>  <SCORE.INTRA.DIHEDRAL.0>
0.477737

>  <SCORE.INTRA.POLAR>
0.0117728

>  <SCORE.INTRA.POLAR.0>
-0.0117728

>  <SCORE.INTRA.REPUL>
0

>  <SCORE.INTRA.REPUL.0>
0

>  <SCORE.INTRA.SOLV>
0.00599042

>  <SCORE.INTRA.SOLV.lig_0>
-9.36054

>  <SCORE.INTRA.VDW>
0.835776

>  <SCORE.INTRA.VDW.0>
-0.0766114

>  <SCORE.INTRA.norm>
0.0798743

>  <SCORE.RESTR>
0

>  <SCORE.RESTR.CAVITY>
0

>  <SCORE.RESTR.norm>
0

>  <SCORE.SYSTEM>
-21.128

>  <SCORE.SYSTEM.CONST>
0

>  <SCORE.SYSTEM.DIHEDRAL>
4.17647

>  <SCORE.SYSTEM.POLAR>
-3.03757

>  <SCORE.SYSTEM.SOLV>
0.187021

>  <SCORE.SYSTEM.VDW>
-5.41463

>  <SCORE.SYSTEM.norm>
-1.92073

>  <SCORE.heavy>
11

>  <SCORE.norm>
-5.16749

$$$$
2,4,6-triaminopyrimidine
 OpenBabel12072022113D
libRbt.so/2013.1/901 2013/11/27
 16 16  0  0  0  0  0  0  0  0999 V2000
  -29.9524   17.5268  -14.8983 C   0  0  0  0  0  0  0  0  0  0  0  0
  -29.6135   17.2797  -16.2222 C   0  0  0  0  0  0  0  0  0  0  0  0
  -30.4724   17.6432  -17.1744 N   0  3  0  0  0  0  0  0  0  0  0  0
  -30.2725   17.4728  -18.1481 H   0  0  0  0  0  0  0  0  0  0  0  0
  -31.6044   18.2709  -16.8704 C   0  0  0  0  0  0  0  0  0  0  0  0
  -31.9643   18.5834  -15.6199 N   0  0  0  0  0  0  0  0  0  0  0  0
  -31.1316   18.2021  -14.6434 C   0  0  0  0  0  0  0  0  0  0  0  0
  -31.5434   18.4306  -13.3414 N   0  0  0  0  0  0  0  0  0  0  0  0
  -32.4458   18.6440  -17.9018 N   0  0  0  0  0  0  0  0  0  0  0  0
  -28.4736   16.5710  -16.5603 N   0  0  0  0  0  0  0  0  0  0  0  0
  -31.1973   17.7024  -12.7193 H   0  0  0  0  0  0  0  0  0  0  0  0
  -32.5412   18.5755  -13.2232 H   0  0  0  0  0  0  0  0  0  0  0  0
  -32.2617   19.5525  -18.3123 H   0  0  0  0  0  0  0  0  0  0  0  0
  -32.4176   17.9120  -18.6140 H   0  0  0  0  0  0  0  0  0  0  0  0
  -28.3506   16.3859  -17.5558 H   0  0  0  0  0  0  0  0  0  0  0  0
  -28.1570   15.7945  -15.9907 H   0  0  0  0  0  0  0  0  0  0  0  0
  1  2  2  0  0  0  0
  1  7  1  0  0  0  0
  2  3  1  0  0  0  0
  2 10  1  0  0  0  0
  3  4  1  0  0  0  0
  3  5  2  0  0  0  0
  5  6  1  0  0  0  0
  5  9  1  0  0  0  0
  6  7  2  0  0  0  0
  7  8  1  0  0  0  0
  8 11  1  0  0  0  0
  8 12  1  0  0  0  0
  9 13  1  0  0  0  0
  9 14  1  0  0  0  0
 10 15  1  0  0  0  0
 10 16  1  0  0  0  0
M  CHG  1   3   1
M  END
>  <CHROM.0>
-60.34078089,-58.54908656,-65.65386921,-43.29341954,-56.30895437,-62.18985532
-68.25547917,-58.02184232,-168.18253160

>  <CHROM.1>
175.74510433,-87.82723085,-28.62636172,-30.80436671,17.89260703,-15.94801212
-2.29679907,0.50510908,-1.62261906

>  <Name>
2,4,6-triaminopyrimidine

>  <RI>
0

>  <Rbt.Current_Directory>
/home/fstefaniak/projects/zuza/docking/adenine/4TZX

>  <Rbt.Executable>
rbdock ($Id: //depot/dev/client3/rdock/2013.1/src/exe/rbdock.cxx#4 $)

>  <Rbt.Library>
libRbt.so (2013.1, Build901 2013/11/27)

>  <Rbt.Parameter_File>
/home/fstefaniak/progs/rDock//data/scripts/dock_solv.prm

>  <Rbt.Receptor>
4tzx.prm

>  <SCORE>
-61.4763

>  <SCORE.INTER>
-40.8308

>  <SCORE.INTER.CONST>
1

>  <SCORE.INTER.POLAR>
-6.82908

>  <SCORE.INTER.ROT>
3

>  <SCORE.INTER.SOLV>
17.7633

>  <SCORE.INTER.VDW>
-15.978

>  <SCORE.INTER.norm>
-4.53675

>  <SCORE.INTRA>
0.47022

>  <SCORE.INTRA.DIHEDRAL>
-0.140943

>  <SCORE.INTRA.DIHEDRAL.0>
1.50958

>  <SCORE.INTRA.POLAR>
0

>  <SCORE.INTRA.POLAR.0>
0

>  <SCORE.INTRA.REPUL>
0

>  <SCORE.INTRA.REPUL.0>
0

>  <SCORE.INTRA.SOLV>
0.815362

>  <SCORE.INTRA.SOLV.lig_0>
-35.25

>  <SCORE.INTRA.VDW>
0.13301

>  <SCORE.INTRA.VDW.0>
-0.396343

>  <SCORE.INTRA.norm>
0.0522467

>  <SCORE.RESTR>
0

>  <SCORE.RESTR.CAVITY>
0

>  <SCORE.RESTR.norm>
0

>  <SCORE.SYSTEM>
-21.1157

>  <SCORE.SYSTEM.CONST>
0

>  <SCORE.SYSTEM.DIHEDRAL>
4.55559

>  <SCORE.SYSTEM.POLAR>
-3.05467

>  <SCORE.SYSTEM.SOLV>
0.186204

>  <SCORE.SYSTEM.VDW>
-5.47553

>  <SCORE.SYSTEM.norm>
-2.34619

>  <SCORE.heavy>
9

>  <SCORE.norm>
-6.8307

$$$$
2,4,6-triaminopyrimidine
 OpenBabel12072022113D
libRbt.so/2013.1/901 2013/11/27
 16 16  0  0  0  0  0  0  0  0999 V2000
  -31.0932   18.2847  -15.9784 C   0  0  0  0  0  0  0  0  0  0  0  0
  -30.5378   17.6785  -17.0976 C   0  0  0  0  0  0  0  0  0  0  0  0
  -29.7347   16.6302  -16.9173 N   0  3  0  0  0  0  0  0  0  0  0  0
  -29.3007   16.1664  -17.7006 H   0  0  0  0  0  0  0  0  0  0  0  0
  -29.5077   16.1444  -15.7006 C   0  0  0  0  0  0  0  0  0  0  0  0
  -30.0527   16.6509  -14.5882 N   0  0  0  0  0  0  0  0  0  0  0  0
  -30.8397   17.7230  -14.7407 C   0  0  0  0  0  0  0  0  0  0  0  0
  -31.3261   18.3149  -13.5873 N   0  0  0  0  0  0  0  0  0  0  0  0
  -28.6840   15.0412  -15.5771 N   0  0  0  0  0  0  0  0  0  0  0  0
  -30.7063   18.2037  -18.3672 N   0  0  0  0  0  0  0  0  0  0  0  0
  -30.6605   18.9925  -13.2201 H   0  0  0  0  0  0  0  0  0  0  0  0
  -31.6330   17.6689  -12.8669 H   0  0  0  0  0  0  0  0  0  0  0  0
  -29.0116   14.3162  -14.9486 H   0  0  0  0  0  0  0  0  0  0  0  0
  -28.5188   14.6631  -16.5117 H   0  0  0  0  0  0  0  0  0  0  0  0
  -31.2544   17.6318  -19.0098 H   0  0  0  0  0  0  0  0  0  0  0  0
  -29.9432   18.6751  -18.8394 H   0  0  0  0  0  0  0  0  0  0  0  0
  1  2  2  0  0  0  0
  1  7  1  0  0  0  0
  2  3  1  0  0  0  0
  2 10  1  0  0  0  0
  3  4  1  0  0  0  0
  3  5  2  0  0  0  0
  5  6  1  0  0  0  0
  5  9  1  0  0  0  0
  6  7  2  0  0  0  0
  7  8  1  0  0  0  0
  8 11  1  0  0  0  0
  8 12  1  0  0  0  0
  9 13  1  0  0  0  0
  9 14  1  0  0  0  0
 10 15  1  0  0  0  0
 10 16  1  0  0  0  0
M  CHG  1   3   1
M  END
>  <CHROM.0>
-61.32075263,55.81793087,-71.55764311,-43.03868325,-58.04735788,-62.46179464
-169.61094862,-60.31396754,-168.71942634

>  <CHROM.1>
-113.93251855,-135.68557324,-89.42849987,-30.25563315,17.15981543,-15.85569354
1.78962399,-0.93943938,1.72603419

>  <Name>
2,4,6-triaminopyrimidine

>  <RI>
0

>  <Rbt.Current_Directory>
/home/fstefaniak/projects/zuza/docking/adenine/4TZX

>  <Rbt.Executable>
rbdock ($Id: //depot/dev/client3/rdock/2013.1/src/exe/rbdock.cxx#4 $)

>  <Rbt.Library>
libRbt.so (2013.1, Build901 2013/11/27)

>  <Rbt.Parameter_File>
/home/fstefaniak/progs/rDock//data/scripts/dock_solv.prm

>  <Rbt.Receptor>
4tzx.prm

>  <SCORE>
-61.2539

>  <SCORE.INTER>
-41.7502

>  <SCORE.INTER.CONST>
1

>  <SCORE.INTER.POLAR>
-6.70499

>  <SCORE.INTER.ROT>
3

>  <SCORE.INTER.SOLV>
19.7176

>  <SCORE.INTER.VDW>
-17.656

>  <SCORE.INTER.norm>
-4.63892

>  <SCORE.INTRA>
0.285606

>  <SCORE.INTRA.DIHEDRAL>
-0.0255322

>  <SCORE.INTRA.DIHEDRAL.0>
1.50958

>  <SCORE.INTRA.POLAR>
0

>  <SCORE.INTRA.POLAR.0>
0

>  <SCORE.INTRA.REPUL>
0

>  <SCORE.INTRA.REPUL.0>
0

>  <SCORE.INTRA.SOLV>
0.751702

>  <SCORE.INTRA.SOLV.lig_0>
-35.25

>  <SCORE.INTRA.VDW>
-0.0774793

>  <SCORE.INTRA.VDW.0>
-0.396343

>  <SCORE.INTRA.norm>
0.0317339

>  <SCORE.RESTR>
0

>  <SCORE.RESTR.CAVITY>
0

>  <SCORE.RESTR.norm>
0

>  <SCORE.SYSTEM>
-19.7892

>  <SCORE.SYSTEM.CONST>
0

>  <SCORE.SYSTEM.DIHEDRAL>
5.1857

>  <SCORE.SYSTEM.POLAR>
-3.03751

>  <SCORE.SYSTEM.SOLV>
0.232778

>  <SCORE.SYSTEM.VDW>
-4.87395

>  <SCORE.SYSTEM.norm>
-2.1988

>  <SCORE.heavy>
9

>  <SCORE.norm>
-6.80598

$$$$
2,4,6-triaminopyrimidine
 OpenBabel12072022113D
libRbt.so/2013.1/901 2013/11/27
 16 16  0  0  0  0  0  0  0  0999 V2000
  -29.9954   17.4698  -14.9147 C   0  0  0  0  0  0  0  0  0  0  0  0
  -29.6731   17.2248  -16.2431 C   0  0  0  0  0  0  0  0  0  0  0  0
  -30.5384   17.6005  -17.1846 N   0  3  0  0  0  0  0  0  0  0  0  0
  -30.3506   17.4322  -18.1611 H   0  0  0  0  0  0  0  0  0  0  0  0
  -31.6609   18.2381  -16.8661 C   0  0  0  0  0  0  0  0  0  0  0  0
  -32.0043   18.5491  -15.6106 N   0  0  0  0  0  0  0  0  0  0  0  0
  -31.1652   18.1556  -14.6446 C   0  0  0  0  0  0  0  0  0  0  0  0
  -31.5608   18.3829  -13.3373 N   0  0  0  0  0  0  0  0  0  0  0  0
  -32.5095   18.6237  -17.8869 N   0  0  0  0  0  0  0  0  0  0  0  0
  -28.5439   16.5063  -16.5961 N   0  0  0  0  0  0  0  0  0  0  0  0
  -31.2385   17.6346  -12.7264 H   0  0  0  0  0  0  0  0  0  0  0  0
  -32.5519   18.5632  -13.2113 H   0  0  0  0  0  0  0  0  0  0  0  0
  -32.2882   19.5072  -18.3323 H   0  0  0  0  0  0  0  0  0  0  0  0
  -32.5408   17.8689  -18.5748 H   0  0  0  0  0  0  0  0  0  0  0  0
  -27.8153   16.4554  -15.8840 H   0  0  0  0  0  0  0  0  0  0  0  0
  -28.1544   16.5768  -17.5293 H   0  0  0  0  0  0  0  0  0  0  0  0
  1  2  2  0  0  0  0
  1  7  1  0  0  0  0
  2  3  1  0  0  0  0
  2 10  1  0  0  0  0
  3  4  1  0  0  0  0
  3  5  2  0  0  0  0
  5  6  1  0  0  0  0
  5  9  1  0  0  0  0
  6  7  2  0  0  0  0
  7  8  1  0  0  0  0
  8 11  1  0  0  0  0
  8 12  1  0  0  0  0
  9 13  1  0  0  0  0
  9 14  1  0  0  0  0
 10 15  1  0  0  0  0
 10 16  1  0  0  0  0
M  CHG  1   3   1
M  END
>  <CHROM.0>
-54.73648884,-65.84183667,-65.03832441,-43.79870890,-54.22433892,-63.24302306
-66.79899004,-58.90890660,-168.91874110

>  <CHROM.1>
-20.58542659,-84.38723068,-30.28494208,-30.84959349,17.85579800,-15.95223306
-2.30334974,0.49919796,-1.62288194

>  <Name>
2,4,6-triaminopyrimidine

>  <RI>
0

>  <Rbt.Current_Directory>
/home/fstefaniak/projects/zuza/docking/adenine/4TZX

>  <Rbt.Executable>
rbdock ($Id: //depot/dev/client3/rdock/2013.1/src/exe/rbdock.cxx#4 $)

>  <Rbt.Library>
libRbt.so (2013.1, Build901 2013/11/27)

>  <Rbt.Parameter_File>
/home/fstefaniak/progs/rDock//data/scripts/dock_solv.prm

>  <Rbt.Receptor>
4tzx.prm

>  <SCORE>
-61.142

>  <SCORE.INTER>
-40.605

>  <SCORE.INTER.CONST>
1

>  <SCORE.INTER.POLAR>
-6.84898

>  <SCORE.INTER.ROT>
3

>  <SCORE.INTER.SOLV>
17.9398

>  <SCORE.INTER.VDW>
-15.82

>  <SCORE.INTER.norm>
-4.51166

>  <SCORE.INTRA>
0.51415

>  <SCORE.INTRA.DIHEDRAL>
-0.0445707

>  <SCORE.INTRA.DIHEDRAL.0>
1.50958

>  <SCORE.INTRA.POLAR>
0

>  <SCORE.INTRA.POLAR.0>
0

>  <SCORE.INTRA.REPUL>
0

>  <SCORE.INTRA.REPUL.0>
0

>  <SCORE.INTRA.SOLV>
0.64033

>  <SCORE.INTRA.SOLV.lig_0>
-35.25

>  <SCORE.INTRA.VDW>
0.216271

>  <SCORE.INTRA.VDW.0>
-0.396343

>  <SCORE.INTRA.norm>
0.0571278

>  <SCORE.RESTR>
0

>  <SCORE.RESTR.CAVITY>
0

>  <SCORE.RESTR.norm>
0

>  <SCORE.SYSTEM>
-21.0511

>  <SCORE.SYSTEM.CONST>
0

>  <SCORE.SYSTEM.DIHEDRAL>
4.66766

>  <SCORE.SYSTEM.POLAR>
-3.08917

>  <SCORE.SYSTEM.SOLV>
0.193877

>  <SCORE.SYSTEM.VDW>
-5.35737

>  <SCORE.SYSTEM.norm>
-2.33902

>  <SCORE.heavy>
9

>  <SCORE.norm>
-6.79355

$$$$
2,6-diaminopurine
 OpenBabel12072022113D
libRbt.so/2013.1/901 2013/11/27
 16 17  0  0  0  0  0  0  0  0999 V2000
  -30.3972   18.4843  -18.6225 C   0  0  0  0  0  0  0  0  0  0  0  0
  -31.0433   19.2227  -17.6674 N   0  0  0  0  0  0  0  0  0  0  0  0
  -31.4848   20.1217  -17.7879 H   0  0  0  0  0  0  0  0  0  0  0  0
  -30.9780   18.5256  -16.4968 C   0  0  0  0  0  0  0  0  0  0  0  0
  -30.2894   17.3682  -16.8036 C   0  0  0  0  0  0  0  0  0  0  0  0
  -29.9248   17.3556  -18.1353 N   0  0  0  0  0  0  0  0  0  0  0  0
  -30.0919   16.4708  -15.7451 C   0  0  0  0  0  0  0  0  0  0  0  0
  -30.5588   16.8081  -14.5198 N   0  0  0  0  0  0  0  0  0  0  0  0
  -31.2049   17.9785  -14.3600 C   0  0  0  0  0  0  0  0  0  0  0  0
  -31.4734   18.8909  -15.3083 N   0  0  0  0  0  0  0  0  0  0  0  0
  -31.6792   18.2461  -13.0894 N   0  0  0  0  0  0  0  0  0  0  0  0
  -29.4225   15.2595  -15.8866 N   0  0  0  0  0  0  0  0  0  0  0  0
  -31.5882   17.4146  -12.5213 H   0  0  0  0  0  0  0  0  0  0  0  0
  -32.5959   18.6659  -13.1487 H   0  0  0  0  0  0  0  0  0  0  0  0
  -29.7867   14.5327  -15.2801 H   0  0  0  0  0  0  0  0  0  0  0  0
  -29.2779   15.0249  -16.8601 H   0  0  0  0  0  0  0  0  0  0  0  0
  1  2  1  0  0  0  0
  1  6  2  0  0  0  0
  2  3  1  0  0  0  0
  2  4  1  0  0  0  0
  4  5  2  0  0  0  0
  4 10  1  0  0  0  0
  5  6  1  0  0  0  0
  5  7  1  0  0  0  0
  7  8  2  0  0  0  0
  7 12  1  0  0  0  0
  8  9  1  0  0  0  0
  9 10  2  0  0  0  0
  9 11  1  0  0  0  0
 11 13  1  0  0  0  0
 11 14  1  0  0  0  0
 12 15  1  0  0  0  0
 12 16  1  0  0  0  0
M  END
>  <CHROM.0>
-61.10986102,-174.71961538,-64.79394250,-43.53697241,-176.17955395,-62.62153486
-67.96036024,-59.91846680,-169.15670452

>  <CHROM.1>
-146.99899235,-9.78033749,-30.65400430,17.67414881,-16.02031167,1.15431618
1.04566722,-1.10529929

>  <Name>
2,6-diaminopurine

>  <RI>
0

>  <Rbt.Current_Directory>
/home/fstefaniak/projects/zuza/docking/adenine/4TZX

>  <Rbt.Executable>
rbdock ($Id: //depot/dev/client3/rdock/2013.1/src/exe/rbdock.cxx#4 $)

>  <Rbt.Library>
libRbt.so (2013.1, Build901 2013/11/27)

>  <Rbt.Parameter_File>
/home/fstefaniak/progs/rDock//data/scripts/dock_solv.prm

>  <Rbt.Receptor>
4tzx.prm

>  <SCORE>
-77.1567

>  <SCORE.INTER>
-55.9676

>  <SCORE.INTER.CONST>
1

>  <SCORE.INTER.POLAR>
-7.40493

>  <SCORE.INTER.ROT>
2

>  <SCORE.INTER.SOLV>
16.1813

>  <SCORE.INTER.VDW>
-22.9558

>  <SCORE.INTER.norm>
-5.08796

>  <SCORE.INTRA>
0.037917

>  <SCORE.INTRA.DIHEDRAL>
0.0276659

>  <SCORE.INTRA.DIHEDRAL.0>
0.924116

>  <SCORE.INTRA.POLAR>
0

>  <SCORE.INTRA.POLAR.0>
0

>  <SCORE.INTRA.REPUL>
0

>  <SCORE.INTRA.REPUL.0>
0

>  <SCORE.INTRA.SOLV>
-0.00613204

>  <SCORE.INTRA.SOLV.lig_0>
-19.4041

>  <SCORE.INTRA.VDW>
0.0271501

>  <SCORE.INTRA.VDW.0>
-0.225225

>  <SCORE.INTRA.norm>
0.003447

>  <SCORE.RESTR>
0

>  <SCORE.RESTR.CAVITY>
0

>  <SCORE.RESTR.norm>
0

>  <SCORE.SYSTEM>
-21.227

>  <SCORE.SYSTEM.CONST>
0

>  <SCORE.SYSTEM.DIHEDRAL>
4.49063

>  <SCORE.SYSTEM.POLAR>
-3.03431

>  <SCORE.SYSTEM.SOLV>
-0.0374537

>  <SCORE.SYSTEM.VDW>
-5.52136

>  <SCORE.SYSTEM.norm>
-1.92973

>  <SCORE.heavy>
11

>  <SCORE.norm>
-7.01425

$$$$
2,6-diaminopurine
 OpenBabel12072022113D
libRbt.so/2013.1/901 2013/11/27
 16 17  0  0  0  0  0  0  0  0999 V2000
  -30.4785   18.4860  -18.7086 C   0  0  0  0  0  0  0  0  0  0  0  0
  -31.0848   19.2390  -17.7390 N   0  0  0  0  0  0  0  0  0  0  0  0
  -31.5224   20.1408  -17.8528 H   0  0  0  0  0  0  0  0  0  0  0  0
  -30.9851   18.5523  -16.5647 C   0  0  0  0  0  0  0  0  0  0  0  0
  -30.3176   17.3859  -16.8840 C   0  0  0  0  0  0  0  0  0  0  0  0
  -29.9993   17.3577  -18.2273 N   0  0  0  0  0  0  0  0  0  0  0  0
  -30.0914   16.4966  -15.8244 C   0  0  0  0  0  0  0  0  0  0  0  0
  -30.5128   16.8494  -14.5870 N   0  0  0  0  0  0  0  0  0  0  0  0
  -31.1428   18.0270  -14.4162 C   0  0  0  0  0  0  0  0  0  0  0  0
  -31.4359   18.9330  -15.3634 N   0  0  0  0  0  0  0  0  0  0  0  0
  -31.5705   18.3107  -13.1326 N   0  0  0  0  0  0  0  0  0  0  0  0
  -29.4379   15.2780  -15.9773 N   0  0  0  0  0  0  0  0  0  0  0  0
  -31.3179   17.5440  -12.5236 H   0  0  0  0  0  0  0  0  0  0  0  0
  -32.5424   18.5850  -13.1496 H   0  0  0  0  0  0  0  0  0  0  0  0
  -29.7961   14.5566  -15.3609 H   0  0  0  0  0  0  0  0  0  0  0  0
  -29.3173   15.0395  -16.9531 H   0  0  0  0  0  0  0  0  0  0  0  0
  1  2  1  0  0  0  0
  1  6  2  0  0  0  0
  2  3  1  0  0  0  0
  2  4  1  0  0  0  0
  4  5  2  0  0  0  0
  4 10  1  0  0  0  0
  5  6  1  0  0  0  0
  5  7  1  0  0  0  0
  7  8  2  0  0  0  0
  7 12  1  0  0  0  0
  8  9  1  0  0  0  0
  9 10  2  0  0  0  0
  9 11  1  0  0  0  0
 11 13  1  0  0  0  0
 11 14  1  0  0  0  0
 12 15  1  0  0  0  0
 12 16  1  0  0  0  0
M  END
>  <CHROM.0>
-61.41067469,-174.26017674,-65.49000011,-44.02287366,-58.99942929,-61.83677953
-68.65597871,-176.60395375,-169.25387499

>  <CHROM.1>
-146.18590419,0.12934813,-30.65163395,17.70175456,-16.09126812,1.21308689
1.06809851,-1.16467827

>  <Name>
2,6-diaminopurine

>  <RI>
0

>  <Rbt.Current_Directory>
/home/fstefaniak/projects/zuza/docking/adenine/4TZX

>  <Rbt.Executable>
rbdock ($Id: //depot/dev/client3/rdock/2013.1/src/exe/rbdock.cxx#4 $)

>  <Rbt.Library>
libRbt.so (2013.1, Build901 2013/11/27)

>  <Rbt.Parameter_File>
/home/fstefaniak/progs/rDock//data/scripts/dock_solv.prm

>  <Rbt.Receptor>
4tzx.prm

>  <SCORE>
-76.9886

>  <SCORE.INTER>
-56.0255

>  <SCORE.INTER.CONST>
1

>  <SCORE.INTER.POLAR>
-7.37319

>  <SCORE.INTER.ROT>
2

>  <SCORE.INTER.SOLV>
16.0971

>  <SCORE.INTER.VDW>
-23.0721

>  <SCORE.INTER.norm>
-5.09323

>  <SCORE.INTRA>
0.0437484

>  <SCORE.INTRA.DIHEDRAL>
0.0380678

>  <SCORE.INTRA.DIHEDRAL.0>
0.924116

>  <SCORE.INTRA.POLAR>
0

>  <SCORE.INTRA.POLAR.0>
0

>  <SCORE.INTRA.REPUL>
0

>  <SCORE.INTRA.REPUL.0>
0

>  <SCORE.INTRA.SOLV>
-0.00740878

>  <SCORE.INTRA.SOLV.lig_0>
-19.4041

>  <SCORE.INTRA.VDW>
0.0284189

>  <SCORE.INTRA.VDW.0>
-0.225225

>  <SCORE.INTRA.norm>
0.00397713

>  <SCORE.RESTR>
0

>  <SCORE.RESTR.CAVITY>
0

>  <SCORE.RESTR.norm>
0

>  <SCORE.SYSTEM>
-21.0069

>  <SCORE.SYSTEM.CONST>
0

>  <SCORE.SYSTEM.DIHEDRAL>
4.50035

>  <SCORE.SYSTEM.POLAR>
-3.01571

>  <SCORE.SYSTEM.SOLV>
0.0120665

>  <SCORE.SYSTEM.VDW>
-5.45635

>  <SCORE.SYSTEM.norm>
-1.90972

>  <SCORE.heavy>
11

>  <SCORE.norm>
-6.99897

$$$$
2,6-diaminopurine
 OpenBabel12072022113D
libRbt.so/2013.1/901 2013/11/27
 16 17  0  0  0  0  0  0  0  0999 V2000
  -30.4754   18.5022  -18.7240 C   0  0  0  0  0  0  0  0  0  0  0  0
  -31.1024   19.2440  -17.7590 N   0  0  0  0  0  0  0  0  0  0  0  0
  -31.5701   20.1297  -17.8796 H   0  0  0  0  0  0  0  0  0  0  0  0
  -30.9754   18.5724  -16.5787 C   0  0  0  0  0  0  0  0  0  0  0  0
  -30.2709   17.4257  -16.8896 C   0  0  0  0  0  0  0  0  0  0  0  0
  -29.9572   17.3950  -18.2340 N   0  0  0  0  0  0  0  0  0  0  0  0
  -30.0111   16.5546  -15.8226 C   0  0  0  0  0  0  0  0  0  0  0  0
  -30.4390   16.9053  -14.5868 N   0  0  0  0  0  0  0  0  0  0  0  0
  -31.1070   18.0630  -14.4246 C   0  0  0  0  0  0  0  0  0  0  0  0
  -31.4338   18.9495  -15.3791 N   0  0  0  0  0  0  0  0  0  0  0  0
  -31.5389   18.3447  -13.1419 N   0  0  0  0  0  0  0  0  0  0  0  0
  -29.3182   15.3570  -15.9667 N   0  0  0  0  0  0  0  0  0  0  0  0
  -31.2460   17.5998  -12.5241 H   0  0  0  0  0  0  0  0  0  0  0  0
  -32.5227   18.5726  -13.1555 H   0  0  0  0  0  0  0  0  0  0  0  0
  -28.3113   15.4787  -15.9588 H   0  0  0  0  0  0  0  0  0  0  0  0
  -29.7043   14.6298  -15.3786 H   0  0  0  0  0  0  0  0  0  0  0  0
  1  2  1  0  0  0  0
  1  6  2  0  0  0  0
  2  3  1  0  0  0  0
  2  4  1  0  0  0  0
  4  5  2  0  0  0  0
  4 10  1  0  0  0  0
  5  6  1  0  0  0  0
  5  7  1  0  0  0  0
  7  8  2  0  0  0  0
  7 12  1  0  0  0  0
  8  9  1  0  0  0  0
  9 10  2  0  0  0  0
  9 11  1  0  0  0  0
 11 13  1  0  0  0  0
 11 14  1  0  0  0  0
 12 15  1  0  0  0  0
 12 16  1  0  0  0  0
M  END
>  <CHROM.0>
-61.32815355,-177.77691713,-67.36904762,-43.18906219,-177.52296140,-60.61948689
-66.34296658,-60.29404204,-169.31634798

>  <CHROM.1>
82.62388584,1.00567455,-30.60640290,17.74038243,-16.09219070,1.26504472,1.02694455
-1.20973624

>  <Name>
2,6-diaminopurine

>  <RI>
0

>  <Rbt.Current_Directory>
/home/fstefaniak/projects/zuza/docking/adenine/4TZX

>  <Rbt.Executable>
rbdock ($Id: //depot/dev/client3/rdock/2013.1/src/exe/rbdock.cxx#4 $)

>  <Rbt.Library>
libRbt.so (2013.1, Build901 2013/11/27)

>  <Rbt.Parameter_File>
/home/fstefaniak/progs/rDock//data/scripts/dock_solv.prm

>  <Rbt.Receptor>
4tzx.prm

>  <SCORE>
-76.979

>  <SCORE.INTER>
-55.7343

>  <SCORE.INTER.CONST>
1

>  <SCORE.INTER.POLAR>
-7.38557

>  <SCORE.INTER.ROT>
2

>  <SCORE.INTER.SOLV>
15.8146

>  <SCORE.INTER.VDW>
-22.7425

>  <SCORE.INTER.norm>
-5.06675

>  <SCORE.INTRA>
-0.0147573

>  <SCORE.INTRA.DIHEDRAL>
0.0412497

>  <SCORE.INTRA.DIHEDRAL.0>
0.924116

>  <SCORE.INTRA.POLAR>
0

>  <SCORE.INTRA.POLAR.0>
0

>  <SCORE.INTRA.REPUL>
0

>  <SCORE.INTRA.REPUL.0>
0

>  <SCORE.INTRA.SOLV>
0.0117831

>  <SCORE.INTRA.SOLV.lig_0>
-19.4041

>  <SCORE.INTRA.VDW>
-0.0412737

>  <SCORE.INTRA.VDW.0>
-0.225225

>  <SCORE.INTRA.norm>
-0.00134157

>  <SCORE.RESTR>
0

>  <SCORE.RESTR.CAVITY>
0

>  <SCORE.RESTR.norm>
0

>  <SCORE.SYSTEM>
-21.23

>  <SCORE.SYSTEM.CONST>
0

>  <SCORE.SYSTEM.DIHEDRAL>
4.38731

>  <SCORE.SYSTEM.POLAR>
-3.03037

>  <SCORE.SYSTEM.SOLV>
-0.0291885

>  <SCORE.SYSTEM.VDW>
-5.50479

>  <SCORE.SYSTEM.norm>
-1.93

>  <SCORE.heavy>
11

>  <SCORE.norm>
-6.99809

$$$$
2-aminopurine
 OpenBabel12072022113D
libRbt.so/2013.1/901 2013/11/27
 13 14  0  0  0  0  0  0  0  0999 V2000
  -29.9116   16.6729  -15.8328 C   0  0  0  0  0  0  0  0  0  0  0  0
  -30.1746   17.5500  -16.8750 C   0  0  0  0  0  0  0  0  0  0  0  0
  -30.9021   18.6771  -16.5391 C   0  0  0  0  0  0  0  0  0  0  0  0
  -31.0321   19.3751  -17.7037 N   0  0  0  0  0  0  0  0  0  0  0  0
  -31.5104   20.2573  -17.8057 H   0  0  0  0  0  0  0  0  0  0  0  0
  -30.3942   18.6610  -18.6823 C   0  0  0  0  0  0  0  0  0  0  0  0
  -29.8662   17.5485  -18.2145 N   0  0  0  0  0  0  0  0  0  0  0  0
  -31.3779   19.0167  -15.3336 N   0  0  0  0  0  0  0  0  0  0  0  0
  -31.0509   18.1117  -14.3966 C   0  0  0  0  0  0  0  0  0  0  0  0
  -30.3674   16.9668  -14.5857 N   0  0  0  0  0  0  0  0  0  0  0  0
  -31.5012   18.3500  -13.1132 N   0  0  0  0  0  0  0  0  0  0  0  0
  -32.4823   18.5884  -13.1315 H   0  0  0  0  0  0  0  0  0  0  0  0
  -31.2191   17.5871  -12.5134 H   0  0  0  0  0  0  0  0  0  0  0  0
  1  2  2  0  0  0  0
  1 10  1  0  0  0  0
  2  3  1  0  0  0  0
  2  7  1  0  0  0  0
  3  4  1  0  0  0  0
  3  8  2  0  0  0  0
  4  5  1  0  0  0  0
  4  6  1  0  0  0  0
  6  7  2  0  0  0  0
  8  9  1  0  0  0  0
  9 10  2  0  0  0  0
  9 11  1  0  0  0  0
 11 12  1  0  0  0  0
 11 13  1  0  0  0  0
M  END
>  <CHROM.0>
-61.03897773,-178.29898373,-64.94638115,-43.91874498,-174.09515715,-64.95676111
-68.29878683,-177.60431254,-168.94783597

>  <CHROM.1>
47.85557019,-30.68708567,18.11438831,-16.08278216,-1.90830655,1.00803618
-1.18514797

>  <Name>
2-aminopurine

>  <RI>
0

>  <Rbt.Current_Directory>
/home/fstefaniak/projects/zuza/docking/adenine/4TZX

>  <Rbt.Executable>
rbdock ($Id: //depot/dev/client3/rdock/2013.1/src/exe/rbdock.cxx#4 $)

>  <Rbt.Library>
libRbt.so (2013.1, Build901 2013/11/27)

>  <Rbt.Parameter_File>
/home/fstefaniak/progs/rDock//data/scripts/dock_solv.prm

>  <Rbt.Receptor>
4tzx.prm

>  <SCORE>
-71.1754

>  <SCORE.INTER>
-50.0167

>  <SCORE.INTER.CONST>
1

>  <SCORE.INTER.POLAR>
-6.43621

>  <SCORE.INTER.ROT>
1

>  <SCORE.INTER.SOLV>
13.9307

>  <SCORE.INTER.VDW>
-20.8007

>  <SCORE.INTER.norm>
-5.00167

>  <SCORE.INTRA>
0.0105798

>  <SCORE.INTRA.DIHEDRAL>
0.0190743

>  <SCORE.INTRA.DIHEDRAL.0>
0.452546

>  <SCORE.INTRA.POLAR>
0

>  <SCORE.INTRA.POLAR.0>
0

>  <SCORE.INTRA.REPUL>
0

>  <SCORE.INTRA.REPUL.0>
0

>  <SCORE.INTRA.SOLV>
0.00155811

>  <SCORE.INTRA.SOLV.lig_0>
-16.2208

>  <SCORE.INTRA.VDW>
0.000263548

>  <SCORE.INTRA.VDW.0>
-0.0899246

>  <SCORE.INTRA.norm>
0.00105798

>  <SCORE.RESTR>
0

>  <SCORE.RESTR.CAVITY>
0

>  <SCORE.RESTR.norm>
0

>  <SCORE.SYSTEM>
-21.1693

>  <SCORE.SYSTEM.CONST>
0

>  <SCORE.SYSTEM.DIHEDRAL>
4.56505

>  <SCORE.SYSTEM.POLAR>
-3.02688

>  <SCORE.SYSTEM.SOLV>
-0.173133

>  <SCORE.SYSTEM.VDW>
-5.48721

>  <SCORE.SYSTEM.norm>
-2.11693

>  <SCORE.heavy>
10

>  <SCORE.norm>
-7.11754

$$$$
2-aminopurine
 OpenBabel12072022113D
libRbt.so/2013.1/901 2013/11/27
 13 14  0  0  0  0  0  0  0  0999 V2000
  -29.8976   16.6312  -15.8237 C   0  0  0  0  0  0  0  0  0  0  0  0
  -30.2009   17.4655  -16.8898 C   0  0  0  0  0  0  0  0  0  0  0  0
  -30.9576   18.5808  -16.5802 C   0  0  0  0  0  0  0  0  0  0  0  0
  -31.1241   19.2362  -17.7647 N   0  0  0  0  0  0  0  0  0  0  0  0
  -31.6302   20.0999  -17.8884 H   0  0  0  0  0  0  0  0  0  0  0  0
  -30.4779   18.5098  -18.7287 C   0  0  0  0  0  0  0  0  0  0  0  0
  -29.9103   17.4295  -18.2328 N   0  0  0  0  0  0  0  0  0  0  0  0
  -31.4275   18.9454  -15.3796 N   0  0  0  0  0  0  0  0  0  0  0  0
  -31.0609   18.0816  -14.4187 C   0  0  0  0  0  0  0  0  0  0  0  0
  -30.3456   16.9520  -14.5803 N   0  0  0  0  0  0  0  0  0  0  0  0
  -31.5012   18.3482  -13.1373 N   0  0  0  0  0  0  0  0  0  0  0  0
  -32.4917   18.5441  -13.1476 H   0  0  0  0  0  0  0  0  0  0  0  0
  -31.1774   17.6207  -12.5150 H   0  0  0  0  0  0  0  0  0  0  0  0
  1  2  2  0  0  0  0
  1 10  1  0  0  0  0
  2  3  1  0  0  0  0
  2  7  1  0  0  0  0
  3  4  1  0  0  0  0
  3  8  2  0  0  0  0
  4  5  1  0  0  0  0
  4  6  1  0  0  0  0
  6  7  2  0  0  0  0
  8  9  1  0  0  0  0
  9 10  2  0  0  0  0
  9 11  1  0  0  0  0
 11 12  1  0  0  0  0
 11 13  1  0  0  0  0
M  END
>  <CHROM.0>
-60.04693078,-176.23846470,-66.17609855,-43.13943413,-58.60128485,-59.52418650
-64.98612848,-59.40439976,-168.89699727

>  <CHROM.1>
48.62829830,-30.71959152,18.03995939,-16.10899244,-1.86535275,0.98448290
-1.25367062

>  <Name>
2-aminopurine

>  <RI>
0

>  <Rbt.Current_Directory>
/home/fstefaniak/projects/zuza/docking/adenine/4TZX

>  <Rbt.Executable>
rbdock ($Id: //depot/dev/client3/rdock/2013.1/src/exe/rbdock.cxx#4 $)

>  <Rbt.Library>
libRbt.so (2013.1, Build901 2013/11/27)

>  <Rbt.Parameter_File>
/home/fstefaniak/progs/rDock//data/scripts/dock_solv.prm

>  <Rbt.Receptor>
4tzx.prm

>  <SCORE>
-71.0528

>  <SCORE.INTER>
-50.0258

>  <SCORE.INTER.CONST>
1

>  <SCORE.INTER.POLAR>
-6.44949

>  <SCORE.INTER.ROT>
1

>  <SCORE.INTER.SOLV>
13.6649

>  <SCORE.INTER.VDW>
-20.6738

>  <SCORE.INTER.norm>
-5.00258

>  <SCORE.INTRA>
0.0111465

>  <SCORE.INTRA.DIHEDRAL>
0.0201414

>  <SCORE.INTRA.DIHEDRAL.0>
0.452546

>  <SCORE.INTRA.POLAR>
0

>  <SCORE.INTRA.POLAR.0>
0

>  <SCORE.INTRA.REPUL>
0

>  <SCORE.INTRA.REPUL.0>
0

>  <SCORE.INTRA.SOLV>
0.00155232

>  <SCORE.INTRA.SOLV.lig_0>
-16.2208

>  <SCORE.INTRA.VDW>
0.000299607

>  <SCORE.INTRA.VDW.0>
-0.0899246

>  <SCORE.INTRA.norm>
0.00111465

>  <SCORE.RESTR>
0

>  <SCORE.RESTR.CAVITY>
0

>  <SCORE.RESTR.norm>
0

>  <SCORE.SYSTEM>
-21.0381

>  <SCORE.SYSTEM.CONST>
0

>  <SCORE.SYSTEM.DIHEDRAL>
4.30989

>  <SCORE.SYSTEM.POLAR>
-3.04991

>  <SCORE.SYSTEM.SOLV>
0.1658

>  <SCORE.SYSTEM.VDW>
-5.35096

>  <SCORE.SYSTEM.norm>
-2.10381

>  <SCORE.heavy>
10

>  <SCORE.norm>
-7.10528

$$$$
2-aminopurine
 OpenBabel12072022113D
libRbt.so/2013.1/901 2013/11/27
 13 14  0  0  0  0  0  0  0  0999 V2000
  -29.9077   16.6552  -15.8141 C   0  0  0  0  0  0  0  0  0  0  0  0
  -30.1898   17.5098  -16.8699 C   0  0  0  0  0  0  0  0  0  0  0  0
  -30.9297   18.6331  -16.5490 C   0  0  0  0  0  0  0  0  0  0  0  0
  -31.0773   19.3082  -17.7249 N   0  0  0  0  0  0  0  0  0  0  0  0
  -31.5679   20.1821  -17.8393 H   0  0  0  0  0  0  0  0  0  0  0  0
  -30.4371   18.5849  -18.6952 C   0  0  0  0  0  0  0  0  0  0  0  0
  -29.8910   17.4881  -18.2114 N   0  0  0  0  0  0  0  0  0  0  0  0
  -31.4013   18.9883  -15.3463 N   0  0  0  0  0  0  0  0  0  0  0  0
  -31.0557   18.1047  -14.3956 C   0  0  0  0  0  0  0  0  0  0  0  0
  -30.3584   16.9657  -14.5691 N   0  0  0  0  0  0  0  0  0  0  0  0
  -31.4998   18.3603  -13.1133 N   0  0  0  0  0  0  0  0  0  0  0  0
  -32.4763   18.6166  -13.1322 H   0  0  0  0  0  0  0  0  0  0  0  0
  -31.2310   17.5966  -12.5085 H   0  0  0  0  0  0  0  0  0  0  0  0
  1  2  2  0  0  0  0
  1 10  1  0  0  0  0
  2  3  1  0  0  0  0
  2  7  1  0  0  0  0
  3  4  1  0  0  0  0
  3  8  2  0  0  0  0
  4  5  1  0  0  0  0
  4  6  1  0  0  0  0
  6  7  2  0  0  0  0
  8  9  1  0  0  0  0
  9 10  2  0  0  0  0
  9 11  1  0  0  0  0
 11 12  1  0  0  0  0
 11 13  1  0  0  0  0
M  END
>  <CHROM.0>
-59.28872908,-176.56024743,-68.23723764,-43.10872563,-59.07728776,-59.96778720
-64.40544774,-175.56702507,-168.89529949

>  <CHROM.1>
45.90804679,-30.70413956,18.08179270,-16.08428212,-1.88725925,0.99847961
-1.22105121

>  <Name>
2-aminopurine

>  <RI>
0

>  <Rbt.Current_Directory>
/home/fstefaniak/projects/zuza/docking/adenine/4TZX

>  <Rbt.Executable>
rbdock ($Id: //depot/dev/client3/rdock/2013.1/src/exe/rbdock.cxx#4 $)

>  <Rbt.Library>
libRbt.so (2013.1, Build901 2013/11/27)

>  <Rbt.Parameter_File>
/home/fstefaniak/progs/rDock//data/scripts/dock_solv.prm

>  <Rbt.Receptor>
4tzx.prm

>  <SCORE>
-71.034

>  <SCORE.INTER>
-50.0573

>  <SCORE.INTER.CONST>
1

>  <SCORE.INTER.POLAR>
-6.44826

>  <SCORE.INTER.ROT>
1

>  <SCORE.INTER.SOLV>
13.8048

>  <SCORE.INTER.VDW>
-20.7456

>  <SCORE.INTER.norm>
-5.00573

>  <SCORE.INTRA>
0.00918291

>  <SCORE.INTRA.DIHEDRAL>
0.0164497

>  <SCORE.INTRA.DIHEDRAL.0>
0.452546

>  <SCORE.INTRA.POLAR>
0

>  <SCORE.INTRA.POLAR.0>
0

>  <SCORE.INTRA.REPUL>
0

>  <SCORE.INTRA.REPUL.0>
0

>  <SCORE.INTRA.SOLV>
0.00155693

>  <SCORE.INTRA.SOLV.lig_0>
-16.2208

>  <SCORE.INTRA.VDW>
0.000179572

>  <SCORE.INTRA.VDW.0>
-0.0899246

>  <SCORE.INTRA.norm>
0.000918291

>  <SCORE.RESTR>
0

>  <SCORE.RESTR.CAVITY>
0

>  <SCORE.RESTR.norm>
0

>  <SCORE.SYSTEM>
-20.9859

>  <SCORE.SYSTEM.CONST>
0

>  <SCORE.SYSTEM.DIHEDRAL>
4.49441

>  <SCORE.SYSTEM.POLAR>
-3.04741

>  <SCORE.SYSTEM.SOLV>
0.0312589

>  <SCORE.SYSTEM.VDW>
-5.34109

>  <SCORE.SYSTEM.norm>
-2.09859

>  <SCORE.heavy>
10

>  <SCORE.norm>
-7.1034

$$$$
2-chloroadenine
 OpenBabel12072022113D
libRbt.so/2013.1/901 2013/11/27
 14 15  0  0  0  0  0  0  0  0999 V2000
  -30.4627   18.5853  -18.9908 C   0  0  0  0  0  0  0  0  0  0  0  0
  -31.0756   19.2916  -17.9908 N   0  0  0  0  0  0  0  0  0  0  0  0
  -31.5746   20.1642  -18.0802 H   0  0  0  0  0  0  0  0  0  0  0  0
  -30.8948   18.5978  -16.8296 C   0  0  0  0  0  0  0  0  0  0  0  0
  -30.1545   17.4834  -17.1846 C   0  0  0  0  0  0  0  0  0  0  0  0
  -29.8993   17.4833  -18.5407 N   0  0  0  0  0  0  0  0  0  0  0  0
  -29.8238   16.5920  -16.1485 C   0  0  0  0  0  0  0  0  0  0  0  0
  -30.2603   16.8619  -14.8986 N   0  0  0  0  0  0  0  0  0  0  0  0
  -30.9700   17.9941  -14.7119 C   0  0  0  0  0  0  0  0  0  0  0  0
  -31.3419   18.9291  -15.6108 N   0  0  0  0  0  0  0  0  0  0  0  0
  -31.4877   18.2789  -13.1050 Cl  0  0  0  0  0  0  0  0  0  0  0  0
  -29.0817   15.4365  -16.3514 N   0  0  0  0  0  0  0  0  0  0  0  0
  -28.4909   15.4664  -17.1751 H   0  0  0  0  0  0  0  0  0  0  0  0
  -29.6144   14.5934  -16.1821 H   0  0  0  0  0  0  0  0  0  0  0  0
  1  2  1  0  0  0  0
  1  6  2  0  0  0  0
  2  3  1  0  0  0  0
  2  4  1  0  0  0  0
  4  5  2  0  0  0  0
  4 10  1  0  0  0  0
  5  6  1  0  0  0  0
  5  7  1  0  0  0  0
  7  8  2  0  0  0  0
  7 12  1  0  0  0  0
  8  9  1  0  0  0  0
  9 10  2  0  0  0  0
  9 11  1  0  0  0  0
 12 13  1  0  0  0  0
 12 14  1  0  0  0  0
M  END
>  <CHROM.0>
-60.70654752,-167.74221130,-64.61327071,-42.95405517,-175.21868101,-61.61625042
-66.08491280,-56.01330911,-169.09183284

>  <CHROM.1>
23.67205225,-30.61220972,17.82138318,-15.98695196,1.13273904,1.00771652,-1.23673529

>  <Name>
2-chloroadenine

>  <RI>
0

>  <Rbt.Current_Directory>
/home/fstefaniak/projects/zuza/docking/adenine/4TZX

>  <Rbt.Executable>
rbdock ($Id: //depot/dev/client3/rdock/2013.1/src/exe/rbdock.cxx#4 $)

>  <Rbt.Library>
libRbt.so (2013.1, Build901 2013/11/27)

>  <Rbt.Parameter_File>
/home/fstefaniak/progs/rDock//data/scripts/dock_solv.prm

>  <Rbt.Receptor>
4tzx.prm

>  <SCORE>
-67.262

>  <SCORE.INTER>
-46.265

>  <SCORE.INTER.CONST>
1

>  <SCORE.INTER.POLAR>
-5.13728

>  <SCORE.INTER.ROT>
1

>  <SCORE.INTER.SOLV>
13.4795

>  <SCORE.INTER.VDW>
-22.4789

>  <SCORE.INTER.norm>
-4.20591

>  <SCORE.INTRA>
-0.0307787

>  <SCORE.INTRA.DIHEDRAL>
0.0147662

>  <SCORE.INTRA.DIHEDRAL.0>
0.471229

>  <SCORE.INTRA.POLAR>
0

>  <SCORE.INTRA.POLAR.0>
0

>  <SCORE.INTRA.REPUL>
0

>  <SCORE.INTRA.REPUL.0>
0

>  <SCORE.INTRA.SOLV>
-0.0286382

>  <SCORE.INTRA.SOLV.lig_0>
-16.2646

>  <SCORE.INTRA.VDW>
-0.0238427

>  <SCORE.INTRA.VDW.0>
-0.134537

>  <SCORE.INTRA.norm>
-0.00279807

>  <SCORE.RESTR>
0

>  <SCORE.RESTR.CAVITY>
0

>  <SCORE.RESTR.norm>
0

>  <SCORE.SYSTEM>
-20.9663

>  <SCORE.SYSTEM.CONST>
0

>  <SCORE.SYSTEM.DIHEDRAL>
5.10742

>  <SCORE.SYSTEM.POLAR>
-3.05485

>  <SCORE.SYSTEM.SOLV>
-0.0293209

>  <SCORE.SYSTEM.VDW>
-5.48737

>  <SCORE.SYSTEM.norm>
-1.90602

>  <SCORE.heavy>
11

>  <SCORE.norm>
-6.11473

$$$$
2-chloroadenine
 OpenBabel12072022113D
libRbt.so/2013.1/901 2013/11/27
 14 15  0  0  0  0  0  0  0  0999 V2000
  -30.4572   18.6058  -18.9940 C   0  0  0  0  0  0  0  0  0  0  0  0
  -31.0672   19.3124  -17.9925 N   0  0  0  0  0  0  0  0  0  0  0  0
  -31.5518   20.1936  -18.0778 H   0  0  0  0  0  0  0  0  0  0  0  0
  -30.9070   18.6052  -16.8364 C   0  0  0  0  0  0  0  0  0  0  0  0
  -30.1813   17.4826  -17.1958 C   0  0  0  0  0  0  0  0  0  0  0  0
  -29.9149   17.4910  -18.5497 N   0  0  0  0  0  0  0  0  0  0  0  0
  -29.8733   16.5767  -16.1654 C   0  0  0  0  0  0  0  0  0  0  0  0
  -30.3158   16.8418  -14.9166 N   0  0  0  0  0  0  0  0  0  0  0  0
  -31.0092   17.9833  -14.7252 C   0  0  0  0  0  0  0  0  0  0  0  0
  -31.3589   18.9322  -15.6183 N   0  0  0  0  0  0  0  0  0  0  0  0
  -31.5357   18.2613  -13.1199 Cl  0  0  0  0  0  0  0  0  0  0  0  0
  -29.1476   15.4115  -16.3730 N   0  0  0  0  0  0  0  0  0  0  0  0
  -28.6514   15.3880  -17.2571 H   0  0  0  0  0  0  0  0  0  0  0  0
  -29.6509   14.5805  -16.0912 H   0  0  0  0  0  0  0  0  0  0  0  0
  1  2  1  0  0  0  0
  1  6  2  0  0  0  0
  2  3  1  0  0  0  0
  2  4  1  0  0  0  0
  4  5  2  0  0  0  0
  4 10  1  0  0  0  0
  5  6  1  0  0  0  0
  5  7  1  0  0  0  0
  7  8  2  0  0  0  0
  7 12  1  0  0  0  0
  8  9  1  0  0  0  0
  9 10  2  0  0  0  0
  9 11  1  0  0  0  0
 12 13  1  0  0  0  0
 12 14  1  0  0  0  0
M  END
>  <CHROM.0>
-61.43937220,-167.00846295,-65.26929898,-43.45300333,-56.77842493,-63.62203397
-68.73911994,-173.88561379,-168.39298773

>  <CHROM.1>
15.53230852,-30.64393751,17.81643577,-15.99842219,1.10830835,1.02030180,-1.20607813

>  <Name>
2-chloroadenine

>  <RI>
0

>  <Rbt.Current_Directory>
/home/fstefaniak/projects/zuza/docking/adenine/4TZX

>  <Rbt.Executable>
rbdock ($Id: //depot/dev/client3/rdock/2013.1/src/exe/rbdock.cxx#4 $)

>  <Rbt.Library>
libRbt.so (2013.1, Build901 2013/11/27)

>  <Rbt.Parameter_File>
/home/fstefaniak/progs/rDock//data/scripts/dock_solv.prm

>  <Rbt.Receptor>
4tzx.prm

>  <SCORE>
-67.1421

>  <SCORE.INTER>
-46.3194

>  <SCORE.INTER.CONST>
1

>  <SCORE.INTER.POLAR>
-5.12507

>  <SCORE.INTER.ROT>
1

>  <SCORE.INTER.SOLV>
13.6163

>  <SCORE.INTER.VDW>
-22.6015

>  <SCORE.INTER.norm>
-4.21086

>  <SCORE.INTRA>
-0.0183866

>  <SCORE.INTRA.DIHEDRAL>
0.0115802

>  <SCORE.INTRA.DIHEDRAL.0>
0.471229

>  <SCORE.INTRA.POLAR>
0

>  <SCORE.INTRA.POLAR.0>
0

>  <SCORE.INTRA.REPUL>
0

>  <SCORE.INTRA.REPUL.0>
0

>  <SCORE.INTRA.SOLV>
-0.0242101

>  <SCORE.INTRA.SOLV.lig_0>
-16.2646

>  <SCORE.INTRA.VDW>
-0.0120716

>  <SCORE.INTRA.VDW.0>
-0.134537

>  <SCORE.INTRA.norm>
-0.00167151

>  <SCORE.RESTR>
0

>  <SCORE.RESTR.CAVITY>
0

>  <SCORE.RESTR.norm>
0

>  <SCORE.SYSTEM>
-20.8043

>  <SCORE.SYSTEM.CONST>
0

>  <SCORE.SYSTEM.DIHEDRAL>
5.48624

>  <SCORE.SYSTEM.POLAR>
-3.04405

>  <SCORE.SYSTEM.SOLV>
0.00457583

>  <SCORE.SYSTEM.VDW>
-5.55293

>  <SCORE.SYSTEM.norm>
-1.8913

>  <SCORE.heavy>
11

>  <SCORE.norm>
-6.10382

$$$$
2-chloroadenine
 OpenBabel12072022113D
libRbt.so/2013.1/901 2013/11/27
 14 15  0  0  0  0  0  0  0  0999 V2000
  -30.4867   18.5657  -18.9957 C   0  0  0  0  0  0  0  0  0  0  0  0
  -31.0808   19.2794  -17.9897 N   0  0  0  0  0  0  0  0  0  0  0  0
  -31.5741   20.1557  -18.0749 H   0  0  0  0  0  0  0  0  0  0  0  0
  -30.8904   18.5873  -16.8291 C   0  0  0  0  0  0  0  0  0  0  0  0
  -30.1635   17.4661  -17.1908 C   0  0  0  0  0  0  0  0  0  0  0  0
  -29.9262   17.4605  -18.5501 N   0  0  0  0  0  0  0  0  0  0  0  0
  -29.8264   16.5748  -16.1567 C   0  0  0  0  0  0  0  0  0  0  0  0
  -30.2443   16.8514  -14.9020 N   0  0  0  0  0  0  0  0  0  0  0  0
  -30.9425   17.9896  -14.7091 C   0  0  0  0  0  0  0  0  0  0  0  0
  -31.3188   18.9252  -15.6055 N   0  0  0  0  0  0  0  0  0  0  0  0
  -31.4368   18.2826  -13.0962 Cl  0  0  0  0  0  0  0  0  0  0  0  0
  -29.0960   15.4129  -16.3661 N   0  0  0  0  0  0  0  0  0  0  0  0
  -28.4953   15.4462  -17.1826 H   0  0  0  0  0  0  0  0  0  0  0  0
  -29.6409   14.5743  -16.2141 H   0  0  0  0  0  0  0  0  0  0  0  0
  1  2  1  0  0  0  0
  1  6  2  0  0  0  0
  2  3  1  0  0  0  0
  2  4  1  0  0  0  0
  4  5  2  0  0  0  0
  4 10  1  0  0  0  0
  5  6  1  0  0  0  0
  5  7  1  0  0  0  0
  7  8  2  0  0  0  0
  7 12  1  0  0  0  0
  8  9  1  0  0  0  0
  9 10  2  0  0  0  0
  9 11  1  0  0  0  0
 12 13  1  0  0  0  0
 12 14  1  0  0  0  0
M  END
>  <CHROM.0>
-62.54719654,-169.61348139,-68.41532769,-44.05968105,-56.98987508,-62.19425361
-65.66893566,-60.42602061,-168.99772503

>  <CHROM.1>
25.36748340,-30.60276757,17.81084497,-15.98822698,1.15139522,1.01920624,-1.25534098

>  <Name>
2-chloroadenine

>  <RI>
0

>  <Rbt.Current_Directory>
/home/fstefaniak/projects/zuza/docking/adenine/4TZX

>  <Rbt.Executable>
rbdock ($Id: //depot/dev/client3/rdock/2013.1/src/exe/rbdock.cxx#4 $)

>  <Rbt.Library>
libRbt.so (2013.1, Build901 2013/11/27)

>  <Rbt.Parameter_File>
/home/fstefaniak/progs/rDock//data/scripts/dock_solv.prm

>  <Rbt.Receptor>
4tzx.prm

>  <SCORE>
-67.1222

>  <SCORE.INTER>
-46.1735

>  <SCORE.INTER.CONST>
1

>  <SCORE.INTER.POLAR>
-5.15028

>  <SCORE.INTER.ROT>
1

>  <SCORE.INTER.SOLV>
13.457

>  <SCORE.INTER.VDW>
-22.3671

>  <SCORE.INTER.norm>
-4.19759

>  <SCORE.INTRA>
-0.0335673

>  <SCORE.INTRA.DIHEDRAL>
0.0153109

>  <SCORE.INTRA.DIHEDRAL.0>
0.471229

>  <SCORE.INTRA.POLAR>
0

>  <SCORE.INTRA.POLAR.0>
0

>  <SCORE.INTRA.REPUL>
0

>  <SCORE.INTRA.REPUL.0>
0

>  <SCORE.INTRA.SOLV>
-0.0293766

>  <SCORE.INTRA.SOLV.lig_0>
-16.2646

>  <SCORE.INTRA.VDW>
-0.0265344

>  <SCORE.INTRA.VDW.0>
-0.134537

>  <SCORE.INTRA.norm>
-0.00305157

>  <SCORE.RESTR>
0

>  <SCORE.RESTR.CAVITY>
0

>  <SCORE.RESTR.norm>
0

>  <SCORE.SYSTEM>
-20.9151

>  <SCORE.SYSTEM.CONST>
0

>  <SCORE.SYSTEM.DIHEDRAL>
4.87316

>  <SCORE.SYSTEM.POLAR>
-3.01325

>  <SCORE.SYSTEM.SOLV>
0.142289

>  <SCORE.SYSTEM.VDW>
-5.57106

>  <SCORE.SYSTEM.norm>
-1.90137

>  <SCORE.heavy>
11

>  <SCORE.norm>
-6.10202

$$$$
3-methyladenine
 OpenBabel12072022113D
libRbt.so/2013.1/901 2013/11/27
 13 14  0  0  0  0  0  0  0  0999 V2000
  -30.2639   18.2749  -19.1227 C   0  0  0  0  0  0  0  0  0  0  0  0
  -30.5245   18.2277  -17.7001 N   0  0  0  0  0  0  0  0  0  0  0  0
  -31.0937   19.2802  -17.0184 C   0  0  0  0  0  0  0  0  0  0  0  0
  -31.3489   19.3185  -15.7432 N   0  0  0  0  0  0  0  0  0  0  0  0
  -30.9992   18.2067  -14.9826 C   0  0  0  0  0  0  0  0  0  0  0  0
  -30.4517   17.1030  -15.5365 C   0  0  0  0  0  0  0  0  0  0  0  0
  -30.0566   15.8936  -15.0371 N   0  0  0  0  0  0  0  0  0  0  0  0
  -29.6069   15.2841  -16.0971 C   0  0  0  0  0  0  0  0  0  0  0  0
  -29.6668   15.9700  -17.3054 N   0  0  0  0  0  0  0  0  0  0  0  0
  -30.1944   17.1124  -16.9792 C   0  0  0  0  0  0  0  0  0  0  0  0
  -31.2502   18.2401  -13.6229 N   0  0  0  0  0  0  0  0  0  0  0  0
  -30.6292   18.9047  -13.1739 H   0  0  0  0  0  0  0  0  0  0  0  0
  -32.2372   18.3964  -13.4304 H   0  0  0  0  0  0  0  0  0  0  0  0
  1  2  1  0  0  0  0
  2  3  1  0  0  0  0
  2 10  1  0  0  0  0
  3  4  2  0  0  0  0
  4  5  1  0  0  0  0
  5  6  2  0  0  0  0
  5 11  1  0  0  0  0
  6  7  1  0  0  0  0
  6 10  1  0  0  0  0
  7  8  2  0  0  0  0
  8  9  1  0  0  0  0
  9 10  2  0  0  0  0
 11 12  1  0  0  0  0
 11 13  1  0  0  0  0
M  END
>  <CHROM.0>
-60.50453140,177.24851261,-65.78175170,-42.84861651,-59.46952126,-61.31847023
-66.76191401,-175.29006711,-169.41486110

>  <CHROM.1>
-69.65546983,-30.50697188,17.56343506,-16.27974531,1.09615805,1.14823366
-1.15600898

>  <Name>
3-methyladenine

>  <RI>
0

>  <Rbt.Current_Directory>
/home/fstefaniak/projects/zuza/docking/adenine/4TZX

>  <Rbt.Executable>
rbdock ($Id: //depot/dev/client3/rdock/2013.1/src/exe/rbdock.cxx#4 $)

>  <Rbt.Library>
libRbt.so (2013.1, Build901 2013/11/27)

>  <Rbt.Parameter_File>
/home/fstefaniak/progs/rDock//data/scripts/dock_solv.prm

>  <Rbt.Receptor>
4tzx.prm

>  <SCORE>
-57.6612

>  <SCORE.INTER>
-36.5853

>  <SCORE.INTER.CONST>
1

>  <SCORE.INTER.POLAR>
-3.89665

>  <SCORE.INTER.ROT>
1

>  <SCORE.INTER.SOLV>
11.7368

>  <SCORE.INTER.VDW>
-19.5803

>  <SCORE.INTER.norm>
-3.32594

>  <SCORE.INTRA>
-0.155927

>  <SCORE.INTRA.DIHEDRAL>
0.0104144

>  <SCORE.INTRA.DIHEDRAL.0>
0.465519

>  <SCORE.INTRA.POLAR>
0

>  <SCORE.INTRA.POLAR.0>
0

>  <SCORE.INTRA.REPUL>
0

>  <SCORE.INTRA.REPUL.0>
0

>  <SCORE.INTRA.SOLV>
0.0203517

>  <SCORE.INTRA.SOLV.lig_0>
-9.50567

>  <SCORE.INTRA.VDW>
-0.17131

>  <SCORE.INTRA.VDW.0>
-0.0334473

>  <SCORE.INTRA.norm>
-0.0141752

>  <SCORE.RESTR>
0

>  <SCORE.RESTR.CAVITY>
0

>  <SCORE.RESTR.norm>
0

>  <SCORE.SYSTEM>
-20.92

>  <SCORE.SYSTEM.CONST>
0

>  <SCORE.SYSTEM.DIHEDRAL>
4.44292

>  <SCORE.SYSTEM.POLAR>
-3.03974

>  <SCORE.SYSTEM.SOLV>
0.031597

>  <SCORE.SYSTEM.VDW>
-5.30569

>  <SCORE.SYSTEM.norm>
-1.90182

>  <SCORE.heavy>
11

>  <SCORE.norm>
-5.24193

$$$$
3-methyladenine
 OpenBabel12072022113D
libRbt.so/2013.1/901 2013/11/27
 13 14  0  0  0  0  0  0  0  0999 V2000
  -28.4569   15.5978  -15.9712 C   0  0  0  0  0  0  0  0  0  0  0  0
  -29.5056   16.4930  -16.4099 N   0  0  0  0  0  0  0  0  0  0  0  0
  -29.6919   16.8190  -17.7348 C   0  0  0  0  0  0  0  0  0  0  0  0
  -30.6016   17.6213  -18.2057 N   0  0  0  0  0  0  0  0  0  0  0  0
  -31.4587   18.2295  -17.2934 C   0  0  0  0  0  0  0  0  0  0  0  0
  -31.3908   17.9771  -15.9681 C   0  0  0  0  0  0  0  0  0  0  0  0
  -32.1136   18.4017  -14.8885 N   0  0  0  0  0  0  0  0  0  0  0  0
  -31.5281   17.7894  -13.8988 C   0  0  0  0  0  0  0  0  0  0  0  0
  -30.4556   16.9580  -14.2031 N   0  0  0  0  0  0  0  0  0  0  0  0
  -30.3517   17.0584  -15.4949 C   0  0  0  0  0  0  0  0  0  0  0  0
  -32.4203   19.0971  -17.7787 N   0  0  0  0  0  0  0  0  0  0  0  0
  -32.2811   20.0215  -17.3846 H   0  0  0  0  0  0  0  0  0  0  0  0
  -32.4587   19.0792  -18.7954 H   0  0  0  0  0  0  0  0  0  0  0  0
  1  2  1  0  0  0  0
  2  3  1  0  0  0  0
  2 10  1  0  0  0  0
  3  4  2  0  0  0  0
  4  5  1  0  0  0  0
  5  6  2  0  0  0  0
  5 11  1  0  0  0  0
  6  7  1  0  0  0  0
  6 10  1  0  0  0  0
  7  8  2  0  0  0  0
  8  9  1  0  0  0  0
  9 10  2  0  0  0  0
 11 12  1  0  0  0  0
 11 13  1  0  0  0  0
M  END
>  <CHROM.0>
-60.68359045,-61.16126302,-62.06190879,-43.17460794,-176.68207714,-62.14770003
-66.59948516,-175.44248231,-169.42986599

>  <CHROM.1>
-119.46854073,-30.71936172,17.46398399,-16.19381480,-0.43516600,0.68646131
-1.42672900

>  <Name>
3-methyladenine

>  <RI>
0

>  <Rbt.Current_Directory>
/home/fstefaniak/projects/zuza/docking/adenine/4TZX

>  <Rbt.Executable>
rbdock ($Id: //depot/dev/client3/rdock/2013.1/src/exe/rbdock.cxx#4 $)

>  <Rbt.Library>
libRbt.so (2013.1, Build901 2013/11/27)

>  <Rbt.Parameter_File>
/home/fstefaniak/progs/rDock//data/scripts/dock_solv.prm

>  <Rbt.Receptor>
4tzx.prm

>  <SCORE>
-57.6137

>  <SCORE.INTER>
-36.2593

>  <SCORE.INTER.CONST>
1

>  <SCORE.INTER.POLAR>
-4.59371

>  <SCORE.INTER.ROT>
1

>  <SCORE.INTER.SOLV>
10.9501

>  <SCORE.INTER.VDW>
-16.7772

>  <SCORE.INTER.norm>
-3.2963

>  <SCORE.INTRA>
-0.120109

>  <SCORE.INTRA.DIHEDRAL>
0.0106694

>  <SCORE.INTRA.DIHEDRAL.0>
0.465519

>  <SCORE.INTRA.POLAR>
0

>  <SCORE.INTRA.POLAR.0>
0

>  <SCORE.INTRA.REPUL>
0

>  <SCORE.INTRA.REPUL.0>
0

>  <SCORE.INTRA.SOLV>
0.0140807

>  <SCORE.INTRA.SOLV.lig_0>
-9.50567

>  <SCORE.INTRA.VDW>
-0.132484

>  <SCORE.INTRA.VDW.0>
-0.0334473

>  <SCORE.INTRA.norm>
-0.010919

>  <SCORE.RESTR>
0

>  <SCORE.RESTR.CAVITY>
0

>  <SCORE.RESTR.norm>
0

>  <SCORE.SYSTEM>
-21.2343

>  <SCORE.SYSTEM.CONST>
0

>  <SCORE.SYSTEM.DIHEDRAL>
4.27951

>  <SCORE.SYSTEM.POLAR>
-3.03728

>  <SCORE.SYSTEM.SOLV>
-0.12847

>  <SCORE.SYSTEM.VDW>
-5.4156

>  <SCORE.SYSTEM.norm>
-1.93039

>  <SCORE.heavy>
11

>  <SCORE.norm>
-5.23761

$$$$
3-methyladenine
 OpenBabel12072022113D
libRbt.so/2013.1/901 2013/11/27
 13 14  0  0  0  0  0  0  0  0999 V2000
  -30.3868   18.3799  -18.9527 C   0  0  0  0  0  0  0  0  0  0  0  0
  -30.7448   18.1388  -17.5716 N   0  0  0  0  0  0  0  0  0  0  0  0
  -31.9232   18.5947  -17.0238 C   0  0  0  0  0  0  0  0  0  0  0  0
  -32.3104   18.4287  -15.7928 N   0  0  0  0  0  0  0  0  0  0  0  0
  -31.4531   17.7468  -14.9343 C   0  0  0  0  0  0  0  0  0  0  0  0
  -30.2768   17.2332  -15.3552 C   0  0  0  0  0  0  0  0  0  0  0  0
  -29.2903   16.5106  -14.7445 N   0  0  0  0  0  0  0  0  0  0  0  0
  -28.4284   16.3409  -15.7066 C   0  0  0  0  0  0  0  0  0  0  0  0
  -28.7403   16.8802  -16.9499 N   0  0  0  0  0  0  0  0  0  0  0  0
  -29.8955   17.4433  -16.7545 C   0  0  0  0  0  0  0  0  0  0  0  0
  -31.8450   17.5768  -13.6189 N   0  0  0  0  0  0  0  0  0  0  0  0
  -31.0478   17.6973  -13.0033 H   0  0  0  0  0  0  0  0  0  0  0  0
  -32.6419   18.1664  -13.3888 H   0  0  0  0  0  0  0  0  0  0  0  0
  1  2  1  0  0  0  0
  2  3  1  0  0  0  0
  2 10  1  0  0  0  0
  3  4  2  0  0  0  0
  4  5  1  0  0  0  0
  5  6  2  0  0  0  0
  5 11  1  0  0  0  0
  6  7  1  0  0  0  0
  6 10  1  0  0  0  0
  7  8  2  0  0  0  0
  8  9  1  0  0  0  0
  9 10  2  0  0  0  0
 11 12  1  0  0  0  0
 11 13  1  0  0  0  0
M  END
>  <CHROM.0>
-61.54560859,163.62064645,-66.20316040,-43.59252462,-177.44434336,-63.37015173
-67.85116723,-60.59431471,-169.15622404

>  <CHROM.1>
-140.50799442,-30.50071867,17.58602255,-16.12232305,1.27848802,0.47787166
-1.28936987

>  <Name>
3-methyladenine

>  <RI>
0

>  <Rbt.Current_Directory>
/home/fstefaniak/projects/zuza/docking/adenine/4TZX

>  <Rbt.Executable>
rbdock ($Id: //depot/dev/client3/rdock/2013.1/src/exe/rbdock.cxx#4 $)

>  <Rbt.Library>
libRbt.so (2013.1, Build901 2013/11/27)

>  <Rbt.Parameter_File>
/home/fstefaniak/progs/rDock//data/scripts/dock_solv.prm

>  <Rbt.Receptor>
4tzx.prm

>  <SCORE>
-57.6055

>  <SCORE.INTER>
-37.3104

>  <SCORE.INTER.CONST>
1

>  <SCORE.INTER.POLAR>
-4.32849

>  <SCORE.INTER.ROT>
1

>  <SCORE.INTER.SOLV>
11.0014

>  <SCORE.INTER.VDW>
-18.3791

>  <SCORE.INTER.norm>
-3.39185

>  <SCORE.INTRA>
-0.0400611

>  <SCORE.INTRA.DIHEDRAL>
0.0256491

>  <SCORE.INTRA.DIHEDRAL.0>
0.465519

>  <SCORE.INTRA.POLAR>
0

>  <SCORE.INTRA.POLAR.0>
0

>  <SCORE.INTRA.REPUL>
0

>  <SCORE.INTRA.REPUL.0>
0

>  <SCORE.INTRA.SOLV>
0.0075445

>  <SCORE.INTRA.SOLV.lig_0>
-9.50567

>  <SCORE.INTRA.VDW>
-0.0566579

>  <SCORE.INTRA.VDW.0>
-0.0334473

>  <SCORE.INTRA.norm>
-0.00364192

>  <SCORE.RESTR>
0

>  <SCORE.RESTR.CAVITY>
0

>  <SCORE.RESTR.norm>
0

>  <SCORE.SYSTEM>
-20.2551

>  <SCORE.SYSTEM.CONST>
0

>  <SCORE.SYSTEM.DIHEDRAL>
5.62068

>  <SCORE.SYSTEM.POLAR>
-3.02841

>  <SCORE.SYSTEM.SOLV>
-0.0206018

>  <SCORE.SYSTEM.VDW>
-5.27539

>  <SCORE.SYSTEM.norm>
-1.84137

>  <SCORE.heavy>
11

>  <SCORE.norm>
-5.23687

$$$$
6-cyanopurine
 OpenBabel12072022113D
libRbt.so/2013.1/901 2013/11/27
 12 13  0  0  0  0  0  0  0  0999 V2000
  -30.4227   18.8031  -18.6100 C   0  0  0  0  0  0  0  0  0  0  0  0
  -31.0315   19.4173  -17.5497 N   0  0  0  0  0  0  0  0  0  0  0  0
  -31.4761   20.3234  -17.5438 H   0  0  0  0  0  0  0  0  0  0  0  0
  -30.9321   18.5770  -16.4789 C   0  0  0  0  0  0  0  0  0  0  0  0
  -30.2518   17.4647  -16.9483 C   0  0  0  0  0  0  0  0  0  0  0  0
  -29.9411   17.6224  -18.2817 N   0  0  0  0  0  0  0  0  0  0  0  0
  -30.0361   16.4643  -16.0089 C   0  0  0  0  0  0  0  0  0  0  0  0
  -30.4795   16.6106  -14.7308 N   0  0  0  0  0  0  0  0  0  0  0  0
  -31.1266   17.7534  -14.4264 C   0  0  0  0  0  0  0  0  0  0  0  0
  -31.3980   18.7928  -15.2403 N   0  0  0  0  0  0  0  0  0  0  0  0
  -29.3467   15.2708  -16.3734 C   0  0  0  0  0  0  0  0  0  0  0  0
  -28.7865   14.2908  -16.6523 N   0  0  0  0  0  0  0  0  0  0  0  0
  1  2  1  0  0  0  0
  1  6  2  0  0  0  0
  2  3  1  0  0  0  0
  2  4  1  0  0  0  0
  4  5  2  0  0  0  0
  4 10  1  0  0  0  0
  5  6  1  0  0  0  0
  5  7  1  0  0  0  0
  7  8  2  0  0  0  0
  7 11  1  0  0  0  0
  8  9  1  0  0  0  0
  9 10  2  0  0  0  0
 11 12  3  0  0  0  0
M  END
>  <CHROM.0>
-60.49342133,-175.58507609,-67.15999448,-43.29590589,-178.30551049,-60.16805960
-65.33453367,-61.87002866,-168.86269282

>  <CHROM.1>
-30.35407688,17.40131882,-16.49038255,-2.41312235,-1.05360213,2.10762159

>  <Name>
6-cyanopurine

>  <RI>
0

>  <Rbt.Current_Directory>
/home/fstefaniak/projects/zuza/docking/adenine/4TZX

>  <Rbt.Executable>
rbdock ($Id: //depot/dev/client3/rdock/2013.1/src/exe/rbdock.cxx#4 $)

>  <Rbt.Library>
libRbt.so (2013.1, Build901 2013/11/27)

>  <Rbt.Parameter_File>
/home/fstefaniak/progs/rDock//data/scripts/dock_solv.prm

>  <Rbt.Receptor>
4tzx.prm

>  <SCORE>
-62.8635

>  <SCORE.INTER>
-41.6308

>  <SCORE.INTER.CONST>
1

>  <SCORE.INTER.POLAR>
-4.2305

>  <SCORE.INTER.ROT>
0

>  <SCORE.INTER.SOLV>
13.7058

>  <SCORE.INTER.VDW>
-21.8208

>  <SCORE.INTER.norm>
-3.78462

>  <SCORE.INTRA>
0

>  <SCORE.INTRA.DIHEDRAL>
0

>  <SCORE.INTRA.DIHEDRAL.0>
0

>  <SCORE.INTRA.POLAR>
0

>  <SCORE.INTRA.POLAR.0>
0

>  <SCORE.INTRA.REPUL>
0

>  <SCORE.INTRA.REPUL.0>
0

>  <SCORE.INTRA.SOLV>
0

>  <SCORE.INTRA.SOLV.lig_0>
-16.4455

>  <SCORE.INTRA.VDW>
0

>  <SCORE.INTRA.VDW.0>
0

>  <SCORE.INTRA.norm>
0

>  <SCORE.RESTR>
0

>  <SCORE.RESTR.CAVITY>
0

>  <SCORE.RESTR.norm>
0

>  <SCORE.SYSTEM>
-21.2327

>  <SCORE.SYSTEM.CONST>
0

>  <SCORE.SYSTEM.DIHEDRAL>
4.41016

>  <SCORE.SYSTEM.POLAR>
-3.04154

>  <SCORE.SYSTEM.SOLV>
-0.0289764

>  <SCORE.SYSTEM.VDW>
-5.47704

>  <SCORE.SYSTEM.norm>
-1.93024

>  <SCORE.heavy>
11

>  <SCORE.norm>
-5.71486

$$$$
6-cyanopurine
 OpenBabel12072022113D
libRbt.so/2013.1/901 2013/11/27
 12 13  0  0  0  0  0  0  0  0999 V2000
  -30.4426   18.8019  -18.6000 C   0  0  0  0  0  0  0  0  0  0  0  0
  -31.0574   19.4185  -17.5445 N   0  0  0  0  0  0  0  0  0  0  0  0
  -31.5027   20.3243  -17.5434 H   0  0  0  0  0  0  0  0  0  0  0  0
  -30.9631   18.5811  -16.4710 C   0  0  0  0  0  0  0  0  0  0  0  0
  -30.2796   17.4681  -16.9339 C   0  0  0  0  0  0  0  0  0  0  0  0
  -29.9619   17.6224  -18.2660 N   0  0  0  0  0  0  0  0  0  0  0  0
  -30.0682   16.4702  -15.9907 C   0  0  0  0  0  0  0  0  0  0  0  0
  -30.5185   16.6197  -14.7154 N   0  0  0  0  0  0  0  0  0  0  0  0
  -31.1680   17.7628  -14.4174 C   0  0  0  0  0  0  0  0  0  0  0  0
  -31.4358   18.7999  -15.2355 N   0  0  0  0  0  0  0  0  0  0  0  0
  -29.3760   15.2763  -16.3484 C   0  0  0  0  0  0  0  0  0  0  0  0
  -28.8137   14.2960  -16.6218 N   0  0  0  0  0  0  0  0  0  0  0  0
  1  2  1  0  0  0  0
  1  6  2  0  0  0  0
  2  3  1  0  0  0  0
  2  4  1  0  0  0  0
  4  5  2  0  0  0  0
  4 10  1  0  0  0  0
  5  6  1  0  0  0  0
  5  7  1  0  0  0  0
  7  8  2  0  0  0  0
  7 11  1  0  0  0  0
  8  9  1  0  0  0  0
  9 10  2  0  0  0  0
 11 12  3  0  0  0  0
M  END
>  <CHROM.0>
-60.67993270,-177.09964769,-66.06606778,-42.58513354,-177.24604211,-64.75602721
-68.71014101,-60.31162676,-168.74230988

>  <CHROM.1>
-30.38428240,17.40578813,-16.47634673,-2.40467443,-1.05027790,2.11231867

>  <Name>
6-cyanopurine

>  <RI>
0

>  <Rbt.Current_Directory>
/home/fstefaniak/projects/zuza/docking/adenine/4TZX

>  <Rbt.Executable>
rbdock ($Id: //depot/dev/client3/rdock/2013.1/src/exe/rbdock.cxx#4 $)

>  <Rbt.Library>
libRbt.so (2013.1, Build901 2013/11/27)

>  <Rbt.Parameter_File>
/home/fstefaniak/progs/rDock//data/scripts/dock_solv.prm

>  <Rbt.Receptor>
4tzx.prm

>  <SCORE>
-62.8598

>  <SCORE.INTER>
-41.6186

>  <SCORE.INTER.CONST>
1

>  <SCORE.INTER.POLAR>
-4.2305

>  <SCORE.INTER.ROT>
0

>  <SCORE.INTER.SOLV>
13.7466

>  <SCORE.INTER.VDW>
-21.8263

>  <SCORE.INTER.norm>
-3.78351

>  <SCORE.INTRA>
0

>  <SCORE.INTRA.DIHEDRAL>
0

>  <SCORE.INTRA.DIHEDRAL.0>
0

>  <SCORE.INTRA.POLAR>
0

>  <SCORE.INTRA.POLAR.0>
0

>  <SCORE.INTRA.REPUL>
0

>  <SCORE.INTRA.REPUL.0>
0

>  <SCORE.INTRA.SOLV>
0

>  <SCORE.INTRA.SOLV.lig_0>
-16.4455

>  <SCORE.INTRA.VDW>
0

>  <SCORE.INTRA.VDW.0>
0

>  <SCORE.INTRA.norm>
0

>  <SCORE.RESTR>
0

>  <SCORE.RESTR.CAVITY>
0

>  <SCORE.RESTR.norm>
0

>  <SCORE.SYSTEM>
-21.2412

>  <SCORE.SYSTEM.CONST>
0

>  <SCORE.SYSTEM.DIHEDRAL>
4.72601

>  <SCORE.SYSTEM.POLAR>
-3.05246

>  <SCORE.SYSTEM.SOLV>
-0.0412458

>  <SCORE.SYSTEM.VDW>
-5.5475

>  <SCORE.SYSTEM.norm>
-1.93102

>  <SCORE.heavy>
11

>  <SCORE.norm>
-5.71453

$$$$
6-cyanopurine
 OpenBabel12072022113D
libRbt.so/2013.1/901 2013/11/27
 12 13  0  0  0  0  0  0  0  0999 V2000
  -30.4355   18.8111  -18.6167 C   0  0  0  0  0  0  0  0  0  0  0  0
  -31.0482   19.4222  -17.5568 N   0  0  0  0  0  0  0  0  0  0  0  0
  -31.4944   20.3274  -17.5504 H   0  0  0  0  0  0  0  0  0  0  0  0
  -30.9501   18.5800  -16.4873 C   0  0  0  0  0  0  0  0  0  0  0  0
  -30.2666   17.4699  -16.9570 C   0  0  0  0  0  0  0  0  0  0  0  0
  -29.9526   17.6306  -18.2893 N   0  0  0  0  0  0  0  0  0  0  0  0
  -30.0515   16.4680  -16.0189 C   0  0  0  0  0  0  0  0  0  0  0  0
  -30.4985   16.6112  -14.7417 N   0  0  0  0  0  0  0  0  0  0  0  0
  -31.1486   17.7522  -14.4369 C   0  0  0  0  0  0  0  0  0  0  0  0
  -31.4196   18.7927  -15.2495 N   0  0  0  0  0  0  0  0  0  0  0  0
  -29.3590   15.2765  -16.3839 C   0  0  0  0  0  0  0  0  0  0  0  0
  -28.7964   14.2980  -16.6632 N   0  0  0  0  0  0  0  0  0  0  0  0
  1  2  1  0  0  0  0
  1  6  2  0  0  0  0
  2  3  1  0  0  0  0
  2  4  1  0  0  0  0
  4  5  2  0  0  0  0
  4 10  1  0  0  0  0
  5  6  1  0  0  0  0
  5  7  1  0  0  0  0
  7  8  2  0  0  0  0
  7 11  1  0  0  0  0
  8  9  1  0  0  0  0
  9 10  2  0  0  0  0
 11 12  3  0  0  0  0
M  END
>  <CHROM.0>
-60.63702620,-173.74189004,-66.58362967,-43.71380979,-177.54440593,-63.20797689
-67.11033069,-62.40198342,-169.27314036

>  <CHROM.1>
-30.36995578,17.40541271,-16.49949422,-2.41043948,-1.05071897,2.11182632

>  <Name>
6-cyanopurine

>  <RI>
0

>  <Rbt.Current_Directory>
/home/fstefaniak/projects/zuza/docking/adenine/4TZX

>  <Rbt.Executable>
rbdock ($Id: //depot/dev/client3/rdock/2013.1/src/exe/rbdock.cxx#4 $)

>  <Rbt.Library>
libRbt.so (2013.1, Build901 2013/11/27)

>  <Rbt.Parameter_File>
/home/fstefaniak/progs/rDock//data/scripts/dock_solv.prm

>  <Rbt.Receptor>
4tzx.prm

>  <SCORE>
-62.8556

>  <SCORE.INTER>
-41.6216

>  <SCORE.INTER.CONST>
1

>  <SCORE.INTER.POLAR>
-4.2305

>  <SCORE.INTER.ROT>
0

>  <SCORE.INTER.SOLV>
13.7344

>  <SCORE.INTER.VDW>
-21.8242

>  <SCORE.INTER.norm>
-3.78378

>  <SCORE.INTRA>
0

>  <SCORE.INTRA.DIHEDRAL>
0

>  <SCORE.INTRA.DIHEDRAL.0>
0

>  <SCORE.INTRA.POLAR>
0

>  <SCORE.INTRA.POLAR.0>
0

>  <SCORE.INTRA.REPUL>
0

>  <SCORE.INTRA.REPUL.0>
0

>  <SCORE.INTRA.SOLV>
0

>  <SCORE.INTRA.SOLV.lig_0>
-16.4455

>  <SCORE.INTRA.VDW>
0

>  <SCORE.INTRA.VDW.0>
0

>  <SCORE.INTRA.norm>
0

>  <SCORE.RESTR>
0

>  <SCORE.RESTR.CAVITY>
0

>  <SCORE.RESTR.norm>
0

>  <SCORE.SYSTEM>
-21.234

>  <SCORE.SYSTEM.CONST>
0

>  <SCORE.SYSTEM.DIHEDRAL>
4.54286

>  <SCORE.SYSTEM.POLAR>
-3.02509

>  <SCORE.SYSTEM.SOLV>
-0.0427913

>  <SCORE.SYSTEM.VDW>
-5.57237

>  <SCORE.SYSTEM.norm>
-1.93036

>  <SCORE.heavy>
11

>  <SCORE.norm>
-5.71414

$$$$
6-mercaptopurine
 OpenBabel12072022113D
libRbt.so/2013.1/901 2013/11/27
 12 13  0  0  0  0  0  0  0  0999 V2000
  -30.5685   18.6005  -18.9126 C   0  0  0  0  0  0  0  0  0  0  0  0
  -31.3749   19.1382  -17.9424 N   0  0  0  0  0  0  0  0  0  0  0  0
  -32.1384   19.7845  -18.0752 H   0  0  0  0  0  0  0  0  0  0  0  0
  -30.9537   18.6355  -16.7488 C   0  0  0  0  0  0  0  0  0  0  0  0
  -29.8973   17.8057  -17.0583 C   0  0  0  0  0  0  0  0  0  0  0  0
  -29.6612   17.7875  -18.4090 N   0  0  0  0  0  0  0  0  0  0  0  0
  -29.2557   17.1336  -15.9582 C   0  0  0  0  0  0  0  0  0  0  0  0
  -27.9756   16.1073  -16.1732 S   0  0  0  0  0  0  0  0  0  0  0  0
  -29.8088   17.4282  -14.7234 N   0  0  0  0  0  0  0  0  0  0  0  0
  -29.3970   16.9835  -13.9154 H   0  0  0  0  0  0  0  0  0  0  0  0
  -30.8831   18.2932  -14.5717 C   0  0  0  0  0  0  0  0  0  0  0  0
  -31.4891   18.9185  -15.5378 N   0  0  0  0  0  0  0  0  0  0  0  0
  1  2  1  0  0  0  0
  1  6  2  0  0  0  0
  2  3  1  0  0  0  0
  2  4  1  0  0  0  0
  4  5  2  0  0  0  0
  4 12  1  0  0  0  0
  5  6  1  0  0  0  0
  5  7  1  0  0  0  0
  7  8  2  0  0  0  0
  7  9  1  0  0  0  0
  9 10  1  0  0  0  0
  9 11  1  0  0  0  0
 11 12  2  0  0  0  0
M  END
>  <CHROM.0>
-61.65556090,-172.23636364,-66.31417908,-43.50582304,-57.80457795,-61.67755267
-67.77057827,-58.59371458,-169.49340953

>  <CHROM.1>
-29.93110978,17.76634827,-16.54322803,-2.61122505,-0.68490278,1.70054707

>  <Name>
6-mercaptopurine

>  <RI>
0

>  <Rbt.Current_Directory>
/home/fstefaniak/projects/zuza/docking/adenine/4TZX

>  <Rbt.Executable>
rbdock ($Id: //depot/dev/client3/rdock/2013.1/src/exe/rbdock.cxx#4 $)

>  <Rbt.Library>
libRbt.so (2013.1, Build901 2013/11/27)

>  <Rbt.Parameter_File>
/home/fstefaniak/progs/rDock//data/scripts/dock_solv.prm

>  <Rbt.Receptor>
4tzx.prm

>  <SCORE>
-53.6943

>  <SCORE.INTER>
-32.6896

>  <SCORE.INTER.CONST>
1

>  <SCORE.INTER.POLAR>
-3.03312

>  <SCORE.INTER.ROT>
0

>  <SCORE.INTER.SOLV>
11.638

>  <SCORE.INTER.VDW>
-19.162

>  <SCORE.INTER.norm>
-3.26896

>  <SCORE.INTRA>
0

>  <SCORE.INTRA.DIHEDRAL>
0

>  <SCORE.INTRA.DIHEDRAL.0>
0

>  <SCORE.INTRA.POLAR>
0

>  <SCORE.INTRA.POLAR.0>
0

>  <SCORE.INTRA.REPUL>
0

>  <SCORE.INTRA.REPUL.0>
0

>  <SCORE.INTRA.SOLV>
0

>  <SCORE.INTRA.SOLV.lig_0>
-15.5074

>  <SCORE.INTRA.VDW>
0

>  <SCORE.INTRA.VDW.0>
0

>  <SCORE.INTRA.norm>
0

>  <SCORE.RESTR>
0

>  <SCORE.RESTR.CAVITY>
0

>  <SCORE.RESTR.norm>
0

>  <SCORE.SYSTEM>
-21.0047

>  <SCORE.SYSTEM.CONST>
0

>  <SCORE.SYSTEM.DIHEDRAL>
4.63348

>  <SCORE.SYSTEM.POLAR>
-3.02669

>  <SCORE.SYSTEM.SOLV>
0.148598

>  <SCORE.SYSTEM.VDW>
-5.50822

>  <SCORE.SYSTEM.norm>
-2.10047

>  <SCORE.heavy>
10

>  <SCORE.norm>
-5.36943

$$$$
6-mercaptopurine
 OpenBabel12072022113D
libRbt.so/2013.1/901 2013/11/27
 12 13  0  0  0  0  0  0  0  0999 V2000
  -30.5849   18.5685  -18.8851 C   0  0  0  0  0  0  0  0  0  0  0  0
  -31.3616   19.1067  -17.8911 N   0  0  0  0  0  0  0  0  0  0  0  0
  -32.1230   19.7598  -18.0003 H   0  0  0  0  0  0  0  0  0  0  0  0
  -30.9135   18.5936  -16.7118 C   0  0  0  0  0  0  0  0  0  0  0  0
  -29.8722   17.7574  -17.0534 C   0  0  0  0  0  0  0  0  0  0  0  0
  -29.6715   17.7453  -18.4099 N   0  0  0  0  0  0  0  0  0  0  0  0
  -29.2077   17.0737  -15.9743 C   0  0  0  0  0  0  0  0  0  0  0  0
  -27.9419   16.0386  -16.2284 S   0  0  0  0  0  0  0  0  0  0  0  0
  -29.7262   17.3653  -14.7239 N   0  0  0  0  0  0  0  0  0  0  0  0
  -29.2971   16.9126  -13.9294 H   0  0  0  0  0  0  0  0  0  0  0  0
  -30.7891   18.2379  -14.5393 C   0  0  0  0  0  0  0  0  0  0  0  0
  -31.4150   18.8736  -15.4857 N   0  0  0  0  0  0  0  0  0  0  0  0
  1  2  1  0  0  0  0
  1  6  2  0  0  0  0
  2  3  1  0  0  0  0
  2  4  1  0  0  0  0
  4  5  2  0  0  0  0
  4 12  1  0  0  0  0
  5  6  1  0  0  0  0
  5  7  1  0  0  0  0
  7  8  2  0  0  0  0
  7  9  1  0  0  0  0
  9 10  1  0  0  0  0
  9 11  1  0  0  0  0
 11 12  2  0  0  0  0
M  END
>  <CHROM.0>
-60.14582999,-172.30945425,-67.52419843,-43.46932721,-57.20688551,-59.58607584
-67.99971848,-61.96843094,-169.25417689

>  <CHROM.1>
-29.89297906,17.71522310,-16.53788471,-2.64344185,-0.69598514,1.68586182

>  <Name>
6-mercaptopurine

>  <RI>
0

>  <Rbt.Current_Directory>
/home/fstefaniak/projects/zuza/docking/adenine/4TZX

>  <Rbt.Executable>
rbdock ($Id: //depot/dev/client3/rdock/2013.1/src/exe/rbdock.cxx#4 $)

>  <Rbt.Library>
libRbt.so (2013.1, Build901 2013/11/27)

>  <Rbt.Parameter_File>
/home/fstefaniak/progs/rDock//data/scripts/dock_solv.prm

>  <Rbt.Receptor>
4tzx.prm

>  <SCORE>
-53.6709

>  <SCORE.INTER>
-32.6693

>  <SCORE.INTER.CONST>
1

>  <SCORE.INTER.POLAR>
-3.01353

>  <SCORE.INTER.ROT>
0

>  <SCORE.INTER.SOLV>
11.5733

>  <SCORE.INTER.VDW>
-19.1922

>  <SCORE.INTER.norm>
-3.26693

>  <SCORE.INTRA>
0

>  <SCORE.INTRA.DIHEDRAL>
0

>  <SCORE.INTRA.DIHEDRAL.0>
0

>  <SCORE.INTRA.POLAR>
0

>  <SCORE.INTRA.POLAR.0>
0

>  <SCORE.INTRA.REPUL>
0

>  <SCORE.INTRA.REPUL.0>
0

>  <SCORE.INTRA.SOLV>
0

>  <SCORE.INTRA.SOLV.lig_0>
-15.5074

>  <SCORE.INTRA.VDW>
0

>  <SCORE.INTRA.VDW.0>
0

>  <SCORE.INTRA.norm>
0

>  <SCORE.RESTR>
0

>  <SCORE.RESTR.CAVITY>
0

>  <SCORE.RESTR.norm>
0

>  <SCORE.SYSTEM>
-21.0016

>  <SCORE.SYSTEM.CONST>
0

>  <SCORE.SYSTEM.DIHEDRAL>
4.74351

>  <SCORE.SYSTEM.POLAR>
-3.0377

>  <SCORE.SYSTEM.SOLV>
0.148677

>  <SCORE.SYSTEM.VDW>
-5.50615

>  <SCORE.SYSTEM.norm>
-2.10016

>  <SCORE.heavy>
10

>  <SCORE.norm>
-5.36709

$$$$
6-mercaptopurine
 OpenBabel12072022113D
libRbt.so/2013.1/901 2013/11/27
 12 13  0  0  0  0  0  0  0  0999 V2000
  -30.5507   18.5932  -18.9184 C   0  0  0  0  0  0  0  0  0  0  0  0
  -31.3330   19.1269  -17.9265 N   0  0  0  0  0  0  0  0  0  0  0  0
  -32.0899   19.7851  -18.0364 H   0  0  0  0  0  0  0  0  0  0  0  0
  -30.8981   18.6008  -16.7479 C   0  0  0  0  0  0  0  0  0  0  0  0
  -29.8585   17.7620  -17.0880 C   0  0  0  0  0  0  0  0  0  0  0  0
  -29.6459   17.7608  -18.4428 N   0  0  0  0  0  0  0  0  0  0  0  0
  -29.2071   17.0650  -16.0093 C   0  0  0  0  0  0  0  0  0  0  0  0
  -27.9448   16.0253  -16.2617 S   0  0  0  0  0  0  0  0  0  0  0  0
  -29.7349   17.3484  -14.7609 N   0  0  0  0  0  0  0  0  0  0  0  0
  -29.3153   16.8862  -13.9668 H   0  0  0  0  0  0  0  0  0  0  0  0
  -30.7947   18.2251  -14.5777 C   0  0  0  0  0  0  0  0  0  0  0  0
  -31.4087   18.8727  -15.5238 N   0  0  0  0  0  0  0  0  0  0  0  0
  1  2  1  0  0  0  0
  1  6  2  0  0  0  0
  2  3  1  0  0  0  0
  2  4  1  0  0  0  0
  4  5  2  0  0  0  0
  4 12  1  0  0  0  0
  5  6  1  0  0  0  0
  5  7  1  0  0  0  0
  7  8  2  0  0  0  0
  7  9  1  0  0  0  0
  9 10  1  0  0  0  0
  9 11  1  0  0  0  0
 11 12  2  0  0  0  0
M  END
>  <CHROM.0>
-61.17104566,-170.80674357,-63.88997706,-43.09795847,-56.88768706,-62.40882451
-67.33259148,-58.76582939,-168.35616623

>  <CHROM.1>
-29.88393432,17.71532924,-16.57308226,-2.63127484,-0.70035653,1.70261131

>  <Name>
6-mercaptopurine

>  <RI>
0

>  <Rbt.Current_Directory>
/home/fstefaniak/projects/zuza/docking/adenine/4TZX

>  <Rbt.Executable>
rbdock ($Id: //depot/dev/client3/rdock/2013.1/src/exe/rbdock.cxx#4 $)

>  <Rbt.Library>
libRbt.so (2013.1, Build901 2013/11/27)

>  <Rbt.Parameter_File>
/home/fstefaniak/progs/rDock//data/scripts/dock_solv.prm

>  <Rbt.Receptor>
4tzx.prm

>  <SCORE>
-53.6545

>  <SCORE.INTER>
-32.7093

>  <SCORE.INTER.CONST>
1

>  <SCORE.INTER.POLAR>
-3.03867

>  <SCORE.INTER.ROT>
0

>  <SCORE.INTER.SOLV>
11.5516

>  <SCORE.INTER.VDW>
-19.1278

>  <SCORE.INTER.norm>
-3.27093

>  <SCORE.INTRA>
0

>  <SCORE.INTRA.DIHEDRAL>
0

>  <SCORE.INTRA.DIHEDRAL.0>
0

>  <SCORE.INTRA.POLAR>
0

>  <SCORE.INTRA.POLAR.0>
0

>  <SCORE.INTRA.REPUL>
0

>  <SCORE.INTRA.REPUL.0>
0

>  <SCORE.INTRA.SOLV>
0

>  <SCORE.INTRA.SOLV.lig_0>
-15.5074

>  <SCORE.INTRA.VDW>
0

>  <SCORE.INTRA.VDW.0>
0

>  <SCORE.INTRA.norm>
0

>  <SCORE.RESTR>
0

>  <SCORE.RESTR.CAVITY>
0

>  <SCORE.RESTR.norm>
0

>  <SCORE.SYSTEM>
-20.9452

>  <SCORE.SYSTEM.CONST>
0

>  <SCORE.SYSTEM.DIHEDRAL>
4.79812

>  <SCORE.SYSTEM.POLAR>
-3.05313

>  <SCORE.SYSTEM.SOLV>
0.152698

>  <SCORE.SYSTEM.VDW>
-5.43668

>  <SCORE.SYSTEM.norm>
-2.09452

>  <SCORE.heavy>
10

>  <SCORE.norm>
-5.36545

$$$$
8-azaadenine
 OpenBabel12072022113D
libRbt.so/2013.1/901 2013/11/27
 12 13  0  0  0  0  0  0  0  0999 V2000
  -28.3422   16.1753  -15.8225 C   0  0  0  0  0  0  0  0  0  0  0  0
  -28.6832   16.6408  -17.0506 N   0  0  0  0  0  0  0  0  0  0  0  0
  -29.7997   17.4142  -17.1559 C   0  0  0  0  0  0  0  0  0  0  0  0
  -30.5741   17.6651  -16.0051 C   0  0  0  0  0  0  0  0  0  0  0  0
  -30.1186   17.1180  -14.8168 C   0  0  0  0  0  0  0  0  0  0  0  0
  -28.9784   16.3503  -14.6545 N   0  0  0  0  0  0  0  0  0  0  0  0
  -30.9632   17.4155  -13.8188 N   0  0  0  0  0  0  0  0  0  0  0  0
  -31.9506   18.1509  -14.4198 N   0  5  0  0  0  0  0  0  0  0  0  0
  -31.7387   18.3180  -15.7609 N   0  0  0  0  0  0  0  0  0  0  0  0
  -30.1526   17.8795  -18.4313 N   0  0  0  0  0  0  0  0  0  0  0  0
  -31.0524   17.5077  -18.6982 H   0  0  0  0  0  0  0  0  0  0  0  0
  -30.0432   18.8928  -18.4517 H   0  0  0  0  0  0  0  0  0  0  0  0
  1  2  1  0  0  0  0
  1  6  2  0  0  0  0
  2  3  2  0  0  0  0
  3  4  1  0  0  0  0
  3 10  1  0  0  0  0
  4  5  1  0  0  0  0
  4  9  2  0  0  0  0
  5  6  1  0  0  0  0
  5  7  2  0  0  0  0
  7  8  1  0  0  0  0
  8  9  1  0  0  0  0
 10 11  1  0  0  0  0
 10 12  1  0  0  0  0
M  CHG  1   8  -1
M  END
>  <CHROM.0>
-60.11211879,-177.76508329,-65.84525455,-43.29095895,-179.63308802,-61.03616665
-64.62678676,-57.13638323,-168.70596282

>  <CHROM.1>
117.38242235,-30.14793685,17.33048666,-15.82608403,-0.82641561,-0.55382803
1.78054335

>  <Name>
8-azaadenine

>  <RI>
0

>  <Rbt.Current_Directory>
/home/fstefaniak/projects/zuza/docking/adenine/4TZX

>  <Rbt.Executable>
rbdock ($Id: //depot/dev/client3/rdock/2013.1/src/exe/rbdock.cxx#4 $)

>  <Rbt.Library>
libRbt.so (2013.1, Build901 2013/11/27)

>  <Rbt.Parameter_File>
/home/fstefaniak/progs/rDock//data/scripts/dock_solv.prm

>  <Rbt.Receptor>
4tzx.prm

>  <SCORE>
-59.4732

>  <SCORE.INTER>
-38.1861

>  <SCORE.INTER.CONST>
1

>  <SCORE.INTER.POLAR>
-6.74557

>  <SCORE.INTER.ROT>
1

>  <SCORE.INTER.SOLV>
12.6273

>  <SCORE.INTER.VDW>
-11.4479

>  <SCORE.INTER.norm>
-3.81861

>  <SCORE.INTRA>
-0.105733

>  <SCORE.INTRA.DIHEDRAL>
0.0246553

>  <SCORE.INTRA.DIHEDRAL.0>
0.449342

>  <SCORE.INTRA.POLAR>
0

>  <SCORE.INTRA.POLAR.0>
0

>  <SCORE.INTRA.REPUL>
0

>  <SCORE.INTRA.REPUL.0>
0

>  <SCORE.INTRA.SOLV>
-0.0500765

>  <SCORE.INTRA.SOLV.lig_0>
-16.5613

>  <SCORE.INTRA.VDW>
-0.0930222

>  <SCORE.INTRA.VDW.0>
-0.0951435

>  <SCORE.INTRA.norm>
-0.0105733

>  <SCORE.RESTR>
0

>  <SCORE.RESTR.CAVITY>
0

>  <SCORE.RESTR.norm>
0

>  <SCORE.SYSTEM>
-21.1813

>  <SCORE.SYSTEM.CONST>
0

>  <SCORE.SYSTEM.DIHEDRAL>
4.26037

>  <SCORE.SYSTEM.POLAR>
-3.05056

>  <SCORE.SYSTEM.SOLV>
-0.0164072

>  <SCORE.SYSTEM.VDW>
-5.36699

>  <SCORE.SYSTEM.norm>
-2.11813

>  <SCORE.heavy>
10

>  <SCORE.norm>
-5.94732

$$$$
8-azaadenine
 OpenBabel12072022113D
libRbt.so/2013.1/901 2013/11/27
 12 13  0  0  0  0  0  0  0  0999 V2000
  -30.8018   18.7639  -17.5524 C   0  0  0  0  0  0  0  0  0  0  0  0
  -31.2969   19.0484  -16.3215 N   0  0  0  0  0  0  0  0  0  0  0  0
  -31.0978   18.1413  -15.3249 C   0  0  0  0  0  0  0  0  0  0  0  0
  -30.4287   16.9351  -15.6157 C   0  0  0  0  0  0  0  0  0  0  0  0
  -29.9865   16.7668  -16.9176 C   0  0  0  0  0  0  0  0  0  0  0  0
  -30.1401   17.6689  -17.9561 N   0  0  0  0  0  0  0  0  0  0  0  0
  -29.3952   15.5710  -17.0526 N   0  0  0  0  0  0  0  0  0  0  0  0
  -29.4893   15.0053  -15.8084 N   0  5  0  0  0  0  0  0  0  0  0  0
  -30.1204   15.8189  -14.9078 N   0  0  0  0  0  0  0  0  0  0  0  0
  -31.6250   18.4371  -14.0591 N   0  0  0  0  0  0  0  0  0  0  0  0
  -31.9613   17.5932  -13.6188 H   0  0  0  0  0  0  0  0  0  0  0  0
  -30.9437   18.9919  -13.5424 H   0  0  0  0  0  0  0  0  0  0  0  0
  1  2  1  0  0  0  0
  1  6  2  0  0  0  0
  2  3  2  0  0  0  0
  3  4  1  0  0  0  0
  3 10  1  0  0  0  0
  4  5  1  0  0  0  0
  4  9  2  0  0  0  0
  5  6  1  0  0  0  0
  5  7  2  0  0  0  0
  7  8  1  0  0  0  0
  8  9  1  0  0  0  0
 10 11  1  0  0  0  0
 10 12  1  0  0  0  0
M  CHG  1   8  -1
M  END
>  <CHROM.0>
-59.57849945,-175.64031959,-62.73208948,-43.95611063,-178.35686518,-63.23416213
-67.31240629,-61.73362588,-169.50998862

>  <CHROM.1>
143.40274395,-30.44771165,17.21750549,-16.11182040,-2.84781216,-1.06578132
2.09741153

>  <Name>
8-azaadenine

>  <RI>
0

>  <Rbt.Current_Directory>
/home/fstefaniak/projects/zuza/docking/adenine/4TZX

>  <Rbt.Executable>
rbdock ($Id: //depot/dev/client3/rdock/2013.1/src/exe/rbdock.cxx#4 $)

>  <Rbt.Library>
libRbt.so (2013.1, Build901 2013/11/27)

>  <Rbt.Parameter_File>
/home/fstefaniak/progs/rDock//data/scripts/dock_solv.prm

>  <Rbt.Receptor>
4tzx.prm

>  <SCORE>
-59.4452

>  <SCORE.INTER>
-38.2028

>  <SCORE.INTER.CONST>
1

>  <SCORE.INTER.POLAR>
-4.90764

>  <SCORE.INTER.ROT>
1

>  <SCORE.INTER.SOLV>
13.1884

>  <SCORE.INTER.VDW>
-17.7725

>  <SCORE.INTER.norm>
-3.82028

>  <SCORE.INTRA>
-0.0753147

>  <SCORE.INTRA.DIHEDRAL>
-0.0022454

>  <SCORE.INTRA.DIHEDRAL.0>
0.449342

>  <SCORE.INTRA.POLAR>
0

>  <SCORE.INTRA.POLAR.0>
0

>  <SCORE.INTRA.REPUL>
0

>  <SCORE.INTRA.REPUL.0>
0

>  <SCORE.INTRA.SOLV>
-0.0437216

>  <SCORE.INTRA.SOLV.lig_0>
-16.5613

>  <SCORE.INTRA.VDW>
-0.0523312

>  <SCORE.INTRA.VDW.0>
-0.0951435

>  <SCORE.INTRA.norm>
-0.00753147

>  <SCORE.RESTR>
0

>  <SCORE.RESTR.CAVITY>
0

>  <SCORE.RESTR.norm>
0

>  <SCORE.SYSTEM>
-21.167

>  <SCORE.SYSTEM.CONST>
0

>  <SCORE.SYSTEM.DIHEDRAL>
4.21497

>  <SCORE.SYSTEM.POLAR>
-3.02038

>  <SCORE.SYSTEM.SOLV>
-0.0327722

>  <SCORE.SYSTEM.VDW>
-5.43747

>  <SCORE.SYSTEM.norm>
-2.1167

>  <SCORE.heavy>
10

>  <SCORE.norm>
-5.94452

$$$$
8-azaadenine
 OpenBabel12072022113D
libRbt.so/2013.1/901 2013/11/27
 12 13  0  0  0  0  0  0  0  0999 V2000
  -29.2346   15.7064  -16.4331 C   0  0  0  0  0  0  0  0  0  0  0  0
  -29.6320   16.4306  -17.5096 N   0  0  0  0  0  0  0  0  0  0  0  0
  -30.3685   17.5553  -17.2893 C   0  0  0  0  0  0  0  0  0  0  0  0
  -30.7222   17.8986  -15.9687 C   0  0  0  0  0  0  0  0  0  0  0  0
  -30.2611   17.0641  -14.9638 C   0  0  0  0  0  0  0  0  0  0  0  0
  -29.4887   15.9283  -15.1347 N   0  0  0  0  0  0  0  0  0  0  0  0
  -30.6934   17.4968  -13.7706 N   0  0  0  0  0  0  0  0  0  0  0  0
  -31.4353   18.6106  -14.0638 N   0  5  0  0  0  0  0  0  0  0  0  0
  -31.4718   18.8794  -15.4047 N   0  0  0  0  0  0  0  0  0  0  0  0
  -30.7869   18.2902  -18.4085 N   0  0  0  0  0  0  0  0  0  0  0  0
  -29.9950   18.7440  -18.8398 H   0  0  0  0  0  0  0  0  0  0  0  0
  -31.3575   17.6880  -19.0006 H   0  0  0  0  0  0  0  0  0  0  0  0
  1  2  1  0  0  0  0
  1  6  2  0  0  0  0
  2  3  2  0  0  0  0
  3  4  1  0  0  0  0
  3 10  1  0  0  0  0
  4  5  1  0  0  0  0
  4  9  2  0  0  0  0
  5  6  1  0  0  0  0
  5  7  2  0  0  0  0
  7  8  1  0  0  0  0
  8  9  1  0  0  0  0
 10 11  1  0  0  0  0
 10 12  1  0  0  0  0
M  CHG  1   8  -1
M  END
>  <CHROM.0>
-59.84040821,-177.90139063,-66.35828015,-43.52213828,-56.17692543,-65.10442368
-66.60800035,-176.06338453,-169.17553202

>  <CHROM.1>
-70.24122769,-30.42017955,17.40538119,-15.92793866,-1.07586245,-0.97183972
1.71170269

>  <Name>
8-azaadenine

>  <RI>
0

>  <Rbt.Current_Directory>
/home/fstefaniak/projects/zuza/docking/adenine/4TZX

>  <Rbt.Executable>
rbdock ($Id: //depot/dev/client3/rdock/2013.1/src/exe/rbdock.cxx#4 $)

>  <Rbt.Library>
libRbt.so (2013.1, Build901 2013/11/27)

>  <Rbt.Parameter_File>
/home/fstefaniak/progs/rDock//data/scripts/dock_solv.prm

>  <Rbt.Receptor>
4tzx.prm

>  <SCORE>
-59.417

>  <SCORE.INTER>
-38.2995

>  <SCORE.INTER.CONST>
1

>  <SCORE.INTER.POLAR>
-5.51448

>  <SCORE.INTER.ROT>
1

>  <SCORE.INTER.SOLV>
12.6799

>  <SCORE.INTER.VDW>
-15.6447

>  <SCORE.INTER.norm>
-3.82995

>  <SCORE.INTRA>
-0.0780701

>  <SCORE.INTRA.DIHEDRAL>
0.0236105

>  <SCORE.INTRA.DIHEDRAL.0>
0.449342

>  <SCORE.INTRA.POLAR>
0

>  <SCORE.INTRA.POLAR.0>
0

>  <SCORE.INTRA.REPUL>
0

>  <SCORE.INTRA.REPUL.0>
0

>  <SCORE.INTRA.SOLV>
0.0213371

>  <SCORE.INTRA.SOLV.lig_0>
-16.5613

>  <SCORE.INTRA.VDW>
-0.100544

>  <SCORE.INTRA.VDW.0>
-0.0951435

>  <SCORE.INTRA.norm>
-0.00780701

>  <SCORE.RESTR>
0

>  <SCORE.RESTR.CAVITY>
0

>  <SCORE.RESTR.norm>
0

>  <SCORE.SYSTEM>
-21.0395

>  <SCORE.SYSTEM.CONST>
0

>  <SCORE.SYSTEM.DIHEDRAL>
4.52065

>  <SCORE.SYSTEM.POLAR>
-3.0443

>  <SCORE.SYSTEM.SOLV>
0.0209281

>  <SCORE.SYSTEM.VDW>
-5.39252

>  <SCORE.SYSTEM.norm>
-2.10395

>  <SCORE.heavy>
10

>  <SCORE.norm>
-5.9417

$$$$
8-chloroadenine
 OpenBabel12072022113D
libRbt.so/2013.1/901 2013/11/27
 14 15  0  0  0  0  0  0  0  0999 V2000
  -29.9047   18.0264  -19.2730 C   0  0  0  0  0  0  0  0  0  0  0  0
  -31.2238   18.2817  -19.5458 N   0  0  0  0  0  0  0  0  0  0  0  0
  -31.5179   18.5677  -20.4707 H   0  0  0  0  0  0  0  0  0  0  0  0
  -32.1516   18.4351  -18.5400 C   0  0  0  0  0  0  0  0  0  0  0  0
  -31.7012   18.2685  -17.2856 C   0  0  0  0  0  0  0  0  0  0  0  0
  -32.3055   18.3097  -16.0612 N   0  0  0  0  0  0  0  0  0  0  0  0
  -31.3066   18.0448  -15.2613 C   0  0  0  0  0  0  0  0  0  0  0  0
  -30.0535   17.8162  -15.8059 N   0  0  0  0  0  0  0  0  0  0  0  0
  -30.2857   17.9541  -17.0727 C   0  0  0  0  0  0  0  0  0  0  0  0
  -29.3920   17.8452  -18.0972 N   0  0  0  0  0  0  0  0  0  0  0  0
  -31.5033   17.9680  -13.5785 Cl  0  0  0  0  0  0  0  0  0  0  0  0
  -33.4641   18.7404  -18.8277 N   0  0  0  0  0  0  0  0  0  0  0  0
  -33.5476   19.5919  -19.3753 H   0  0  0  0  0  0  0  0  0  0  0  0
  -33.9190   17.9592  -19.3070 H   0  0  0  0  0  0  0  0  0  0  0  0
  1  2  1  0  0  0  0
  1 10  2  0  0  0  0
  2  3  1  0  0  0  0
  2  4  1  0  0  0  0
  4  5  2  0  0  0  0
  4 12  1  0  0  0  0
  5  6  1  0  0  0  0
  5  9  1  0  0  0  0
  6  7  2  0  0  0  0
  7  8  1  0  0  0  0
  7 11  1  0  0  0  0
  8  9  2  0  0  0  0
  9 10  1  0  0  0  0
 12 13  1  0  0  0  0
 12 14  1  0  0  0  0
M  END
>  <CHROM.0>
-54.48502063,157.14949146,-61.85735554,-42.95402677,-56.29964318,-63.29918161
-65.71541249,-57.28460274,-168.48861789

>  <CHROM.1>
-56.50410477,-31.27791169,18.13973513,-16.79465796,-1.56222672,-0.20372210
1.63791762

>  <Name>
8-chloroadenine

>  <RI>
0

>  <Rbt.Current_Directory>
/home/fstefaniak/projects/zuza/docking/adenine/4TZX

>  <Rbt.Executable>
rbdock ($Id: //depot/dev/client3/rdock/2013.1/src/exe/rbdock.cxx#4 $)

>  <Rbt.Library>
libRbt.so (2013.1, Build901 2013/11/27)

>  <Rbt.Parameter_File>
/home/fstefaniak/progs/rDock//data/scripts/dock_solv.prm

>  <Rbt.Receptor>
4tzx.prm

>  <SCORE>
-56.1923

>  <SCORE.INTER>
-36.8941

>  <SCORE.INTER.CONST>
1

>  <SCORE.INTER.POLAR>
-4.79003

>  <SCORE.INTER.ROT>
1

>  <SCORE.INTER.SOLV>
14.6699

>  <SCORE.INTER.VDW>
-17.7859

>  <SCORE.INTER.norm>
-3.35401

>  <SCORE.INTRA>
-0.174563

>  <SCORE.INTRA.DIHEDRAL>
0.00117058

>  <SCORE.INTRA.DIHEDRAL.0>
0.479227

>  <SCORE.INTRA.POLAR>
0

>  <SCORE.INTRA.POLAR.0>
0

>  <SCORE.INTRA.REPUL>
0

>  <SCORE.INTRA.REPUL.0>
0

>  <SCORE.INTRA.SOLV>
0.0448755

>  <SCORE.INTRA.SOLV.lig_0>
-14.9066

>  <SCORE.INTRA.VDW>
-0.197586

>  <SCORE.INTRA.VDW.0>
-0.188036

>  <SCORE.INTRA.norm>
-0.0158694

>  <SCORE.RESTR>
0

>  <SCORE.RESTR.CAVITY>
0

>  <SCORE.RESTR.norm>
0

>  <SCORE.SYSTEM>
-19.1236

>  <SCORE.SYSTEM.CONST>
0

>  <SCORE.SYSTEM.DIHEDRAL>
6.69291

>  <SCORE.SYSTEM.POLAR>
-3.10862

>  <SCORE.SYSTEM.SOLV>
0.20159

>  <SCORE.SYSTEM.VDW>
-4.68513

>  <SCORE.SYSTEM.norm>
-1.73851

>  <SCORE.heavy>
11

>  <SCORE.norm>
-5.10839

$$$$
8-chloroadenine
 OpenBabel12072022113D
libRbt.so/2013.1/901 2013/11/27
 14 15  0  0  0  0  0  0  0  0999 V2000
  -29.9108   17.9968  -19.2601 C   0  0  0  0  0  0  0  0  0  0  0  0
  -31.2278   18.2608  -19.5352 N   0  0  0  0  0  0  0  0  0  0  0  0
  -31.5198   18.5392  -20.4630 H   0  0  0  0  0  0  0  0  0  0  0  0
  -32.1537   18.4334  -18.5307 C   0  0  0  0  0  0  0  0  0  0  0  0
  -31.7041   18.2765  -17.2748 C   0  0  0  0  0  0  0  0  0  0  0  0
  -32.3074   18.3364  -16.0507 N   0  0  0  0  0  0  0  0  0  0  0  0
  -31.3105   18.0715  -15.2483 C   0  0  0  0  0  0  0  0  0  0  0  0
  -30.0598   17.8258  -15.7909 N   0  0  0  0  0  0  0  0  0  0  0  0
  -30.2914   17.9519  -17.0590 C   0  0  0  0  0  0  0  0  0  0  0  0
  -29.3992   17.8238  -18.0827 N   0  0  0  0  0  0  0  0  0  0  0  0
  -31.5071   18.0148  -13.5648 Cl  0  0  0  0  0  0  0  0  0  0  0  0
  -33.4635   18.7471  -18.8213 N   0  0  0  0  0  0  0  0  0  0  0  0
  -33.5405   19.6005  -19.3669 H   0  0  0  0  0  0  0  0  0  0  0  0
  -33.9217   17.9699  -19.3039 H   0  0  0  0  0  0  0  0  0  0  0  0
  1  2  1  0  0  0  0
  1 10  2  0  0  0  0
  2  3  1  0  0  0  0
  2  4  1  0  0  0  0
  4  5  2  0  0  0  0
  4 12  1  0  0  0  0
  5  6  1  0  0  0  0
  5  9  1  0  0  0  0
  6  7  2  0  0  0  0
  7  8  1  0  0  0  0
  7 11  1  0  0  0  0
  8  9  2  0  0  0  0
  9 10  1  0  0  0  0
 12 13  1  0  0  0  0
 12 14  1  0  0  0  0
M  END
>  <CHROM.0>
-55.47474018,154.82900405,-43.81459696,-43.50203416,-58.30952863,-60.89168664
-63.49105605,-54.85737681,-167.92051633

>  <CHROM.1>
-57.32250082,-31.28175323,18.14943428,-16.78264734,-1.56213093,-0.21277755
1.62701286

>  <Name>
8-chloroadenine

>  <RI>
0

>  <Rbt.Current_Directory>
/home/fstefaniak/projects/zuza/docking/adenine/4TZX

>  <Rbt.Executable>
rbdock ($Id: //depot/dev/client3/rdock/2013.1/src/exe/rbdock.cxx#4 $)

>  <Rbt.Library>
libRbt.so (2013.1, Build901 2013/11/27)

>  <Rbt.Parameter_File>
/home/fstefaniak/progs/rDock//data/scripts/dock_solv.prm

>  <Rbt.Receptor>
4tzx.prm

>  <SCORE>
-55.7219

>  <SCORE.INTER>
-37.1167

>  <SCORE.INTER.CONST>
1

>  <SCORE.INTER.POLAR>
-4.77811

>  <SCORE.INTER.ROT>
1

>  <SCORE.INTER.SOLV>
14.6589

>  <SCORE.INTER.VDW>
-17.9704

>  <SCORE.INTER.norm>
-3.37425

>  <SCORE.INTRA>
-0.174882

>  <SCORE.INTRA.DIHEDRAL>
0.00111267

>  <SCORE.INTRA.DIHEDRAL.0>
0.479227

>  <SCORE.INTRA.POLAR>
0

>  <SCORE.INTRA.POLAR.0>
0

>  <SCORE.INTRA.REPUL>
0

>  <SCORE.INTRA.REPUL.0>
0

>  <SCORE.INTRA.SOLV>
0.0449413

>  <SCORE.INTRA.SOLV.lig_0>
-14.9066

>  <SCORE.INTRA.VDW>
-0.197909

>  <SCORE.INTRA.VDW.0>
-0.188036

>  <SCORE.INTRA.norm>
-0.0158983

>  <SCORE.RESTR>
0

>  <SCORE.RESTR.CAVITY>
0

>  <SCORE.RESTR.norm>
0

>  <SCORE.SYSTEM>
-18.4303

>  <SCORE.SYSTEM.CONST>
0

>  <SCORE.SYSTEM.DIHEDRAL>
8.04402

>  <SCORE.SYSTEM.POLAR>
-3.23533

>  <SCORE.SYSTEM.SOLV>
0.231734

>  <SCORE.SYSTEM.VDW>
-4.26103

>  <SCORE.SYSTEM.norm>
-1.67548

>  <SCORE.heavy>
11

>  <SCORE.norm>
-5.06563

$$$$
8-chloroadenine
 OpenBabel12072022113D
libRbt.so/2013.1/901 2013/11/27
 14 15  0  0  0  0  0  0  0  0999 V2000
  -29.9074   17.9750  -19.2230 C   0  0  0  0  0  0  0  0  0  0  0  0
  -31.2188   18.2600  -19.5035 N   0  0  0  0  0  0  0  0  0  0  0  0
  -31.5023   18.5445  -20.4321 H   0  0  0  0  0  0  0  0  0  0  0  0
  -32.1464   18.4453  -18.5029 C   0  0  0  0  0  0  0  0  0  0  0  0
  -31.7050   18.2792  -17.2452 C   0  0  0  0  0  0  0  0  0  0  0  0
  -32.3128   18.3464  -16.0237 N   0  0  0  0  0  0  0  0  0  0  0  0
  -31.3238   18.0646  -15.2174 C   0  0  0  0  0  0  0  0  0  0  0  0
  -30.0746   17.8004  -15.7548 N   0  0  0  0  0  0  0  0  0  0  0  0
  -30.2985   17.9323  -17.0237 C   0  0  0  0  0  0  0  0  0  0  0  0
  -29.4038   17.7921  -18.0436 N   0  0  0  0  0  0  0  0  0  0  0  0
  -31.5288   18.0081  -13.5348 Cl  0  0  0  0  0  0  0  0  0  0  0  0
  -33.4499   18.7799  -18.7987 N   0  0  0  0  0  0  0  0  0  0  0  0
  -33.5159   19.6710  -19.2819 H   0  0  0  0  0  0  0  0  0  0  0  0
  -33.8962   18.0402  -19.3470 H   0  0  0  0  0  0  0  0  0  0  0  0
  1  2  1  0  0  0  0
  1 10  2  0  0  0  0
  2  3  1  0  0  0  0
  2  4  1  0  0  0  0
  4  5  2  0  0  0  0
  4 12  1  0  0  0  0
  5  6  1  0  0  0  0
  5  9  1  0  0  0  0
  6  7  2  0  0  0  0
  7  8  1  0  0  0  0
  7 11  1  0  0  0  0
  8  9  2  0  0  0  0
  9 10  1  0  0  0  0
 12 13  1  0  0  0  0
 12 14  1  0  0  0  0
M  END
>  <CHROM.0>
-51.83992728,154.15494533,-65.24714197,-43.39976103,-56.73185548,-57.06313529
-67.19574291,59.35506890,-168.50726737

>  <CHROM.1>
-61.64503558,-31.28679629,18.14513713,-16.75141695,-1.55660742,-0.22893452
1.63010040

>  <Name>
8-chloroadenine

>  <RI>
0

>  <Rbt.Current_Directory>
/home/fstefaniak/projects/zuza/docking/adenine/4TZX

>  <Rbt.Executable>
rbdock ($Id: //depot/dev/client3/rdock/2013.1/src/exe/rbdock.cxx#4 $)

>  <Rbt.Library>
libRbt.so (2013.1, Build901 2013/11/27)

>  <Rbt.Parameter_File>
/home/fstefaniak/progs/rDock//data/scripts/dock_solv.prm

>  <Rbt.Receptor>
4tzx.prm

>  <SCORE>
-55.1962

>  <SCORE.INTER>
-37.2111

>  <SCORE.INTER.CONST>
1

>  <SCORE.INTER.POLAR>
-4.78772

>  <SCORE.INTER.ROT>
1

>  <SCORE.INTER.SOLV>
14.637

>  <SCORE.INTER.VDW>
-17.994

>  <SCORE.INTER.norm>
-3.38283

>  <SCORE.INTRA>
-0.175674

>  <SCORE.INTRA.DIHEDRAL>
0.000799038

>  <SCORE.INTRA.DIHEDRAL.0>
0.479227

>  <SCORE.INTRA.POLAR>
0

>  <SCORE.INTRA.POLAR.0>
0

>  <SCORE.INTRA.REPUL>
0

>  <SCORE.INTRA.REPUL.0>
0

>  <SCORE.INTRA.SOLV>
0.0451746

>  <SCORE.INTRA.SOLV.lig_0>
-14.9066

>  <SCORE.INTRA.VDW>
-0.198661

>  <SCORE.INTRA.VDW.0>
-0.188036

>  <SCORE.INTRA.norm>
-0.0159704

>  <SCORE.RESTR>
0

>  <SCORE.RESTR.CAVITY>
0

>  <SCORE.RESTR.norm>
0

>  <SCORE.SYSTEM>
-17.8094

>  <SCORE.SYSTEM.CONST>
0

>  <SCORE.SYSTEM.DIHEDRAL>
7.45752

>  <SCORE.SYSTEM.POLAR>
-3.12608

>  <SCORE.SYSTEM.SOLV>
0.0328118

>  <SCORE.SYSTEM.VDW>
-3.94947

>  <SCORE.SYSTEM.norm>
-1.61904

>  <SCORE.heavy>
11

>  <SCORE.norm>
-5.01784

$$$$
N6,N6-dimethyladenine
 OpenBabel12072022113D
libRbt.so/2013.1/901 2013/11/27
 13 14  0  0  0  0  0  0  0  0999 V2000
  -28.7461   14.3875  -16.3626 C   0  0  0  0  0  0  0  0  0  0  0  0
  -28.3536   15.7778  -16.5440 N   0  0  0  0  0  0  0  0  0  0  0  0
  -26.9729   16.1192  -16.2317 C   0  0  0  0  0  0  0  0  0  0  0  0
  -29.3349   16.7166  -16.1869 C   0  0  0  0  0  0  0  0  0  0  0  0
  -29.9514   17.6439  -17.0706 C   0  0  0  0  0  0  0  0  0  0  0  0
  -30.9232   18.4762  -16.5359 C   0  0  0  0  0  0  0  0  0  0  0  0
  -31.3511   19.2538  -17.5717 N   0  0  0  0  0  0  0  0  0  0  0  0
  -32.0644   19.9639  -17.5085 H   0  0  0  0  0  0  0  0  0  0  0  0
  -30.6442   18.8901  -18.6821 C   0  0  0  0  0  0  0  0  0  0  0  0
  -29.7878   17.9271  -18.4201 N   0  0  0  0  0  0  0  0  0  0  0  0
  -31.3700   18.5280  -15.2750 N   0  0  0  0  0  0  0  0  0  0  0  0
  -30.7348   17.6185  -14.5166 C   0  0  0  0  0  0  0  0  0  0  0  0
  -29.7739   16.7464  -14.8873 N   0  0  0  0  0  0  0  0  0  0  0  0
  1  2  1  0  0  0  0
  2  3  1  0  0  0  0
  2  4  1  0  0  0  0
  4  5  2  0  0  0  0
  4 13  1  0  0  0  0
  5  6  1  0  0  0  0
  5 10  1  0  0  0  0
  6  7  1  0  0  0  0
  6 11  2  0  0  0  0
  7  8  1  0  0  0  0
  7  9  1  0  0  0  0
  9 10  2  0  0  0  0
 11 12  1  0  0  0  0
 12 13  2  0  0  0  0
M  END
>  <CHROM.0>
-61.64542531,-176.22661720,-65.38058536,-44.47520523,178.54655445,-63.69406366
-66.34220104,-62.24473259,-168.91828212

>  <CHROM.1>
-117.41728346,-29.79838993,17.30928966,-16.52330028,-0.50923351,0.76106667
-1.20459293

>  <Name>
N6,N6-dimethyladenine

>  <RI>
0

>  <Rbt.Current_Directory>
/home/fstefaniak/projects/zuza/docking/adenine/4TZX

>  <Rbt.Executable>
rbdock ($Id: //depot/dev/client3/rdock/2013.1/src/exe/rbdock.cxx#4 $)

>  <Rbt.Library>
libRbt.so (2013.1, Build901 2013/11/27)

>  <Rbt.Parameter_File>
/home/fstefaniak/progs/rDock//data/scripts/dock_solv.prm

>  <Rbt.Receptor>
4tzx.prm

>  <SCORE>
-62.8009

>  <SCORE.INTER>
-39.0524

>  <SCORE.INTER.CONST>
1

>  <SCORE.INTER.POLAR>
-4.22423

>  <SCORE.INTER.ROT>
1

>  <SCORE.INTER.SOLV>
13.0562

>  <SCORE.INTER.VDW>
-20.5729

>  <SCORE.INTER.norm>
-3.25437

>  <SCORE.INTRA>
-2.58184

>  <SCORE.INTRA.DIHEDRAL>
-0.0210842

>  <SCORE.INTRA.DIHEDRAL.0>
0.494379

>  <SCORE.INTRA.POLAR>
0

>  <SCORE.INTRA.POLAR.0>
0

>  <SCORE.INTRA.REPUL>
0

>  <SCORE.INTRA.REPUL.0>
0

>  <SCORE.INTRA.SOLV>
0.0233221

>  <SCORE.INTRA.SOLV.lig_0>
-15.6396

>  <SCORE.INTRA.VDW>
-2.58296

>  <SCORE.INTRA.VDW.0>
2.19664

>  <SCORE.INTRA.norm>
-0.215153

>  <SCORE.RESTR>
0

>  <SCORE.RESTR.CAVITY>
0

>  <SCORE.RESTR.norm>
0

>  <SCORE.SYSTEM>
-21.1666

>  <SCORE.SYSTEM.CONST>
0

>  <SCORE.SYSTEM.DIHEDRAL>
4.24755

>  <SCORE.SYSTEM.POLAR>
-3.00626

>  <SCORE.SYSTEM.SOLV>
-0.0402023

>  <SCORE.SYSTEM.VDW>
-5.49266

>  <SCORE.SYSTEM.norm>
-1.76388

>  <SCORE.heavy>
12

>  <SCORE.norm>
-5.23341

$$$$
N6,N6-dimethyladenine
 OpenBabel12072022113D
libRbt.so/2013.1/901 2013/11/27
 13 14  0  0  0  0  0  0  0  0999 V2000
  -28.7249   14.3578  -16.3757 C   0  0  0  0  0  0  0  0  0  0  0  0
  -28.3229   15.7466  -16.5476 N   0  0  0  0  0  0  0  0  0  0  0  0
  -26.9365   16.0738  -16.2455 C   0  0  0  0  0  0  0  0  0  0  0  0
  -29.2930   16.6898  -16.1719 C   0  0  0  0  0  0  0  0  0  0  0  0
  -29.9110   17.6300  -17.0408 C   0  0  0  0  0  0  0  0  0  0  0  0
  -30.8706   18.4650  -16.4885 C   0  0  0  0  0  0  0  0  0  0  0  0
  -31.3030   19.2554  -17.5128 N   0  0  0  0  0  0  0  0  0  0  0  0
  -32.0099   19.9704  -17.4358 H   0  0  0  0  0  0  0  0  0  0  0  0
  -30.6103   18.8963  -18.6336 C   0  0  0  0  0  0  0  0  0  0  0  0
  -29.7589   17.9242  -18.3892 N   0  0  0  0  0  0  0  0  0  0  0  0
  -31.3042   18.5087  -15.2227 N   0  0  0  0  0  0  0  0  0  0  0  0
  -30.6686   17.5873  -14.4792 C   0  0  0  0  0  0  0  0  0  0  0  0
  -29.7185   16.7111  -14.8676 N   0  0  0  0  0  0  0  0  0  0  0  0
  1  2  1  0  0  0  0
  2  3  1  0  0  0  0
  2  4  1  0  0  0  0
  4  5  2  0  0  0  0
  4 13  1  0  0  0  0
  5  6  1  0  0  0  0
  5 10  1  0  0  0  0
  6  7  1  0  0  0  0
  6 11  2  0  0  0  0
  7  8  1  0  0  0  0
  7  9  1  0  0  0  0
  9 10  2  0  0  0  0
 11 12  1  0  0  0  0
 12 13  2  0  0  0  0
M  END
>  <CHROM.0>
-61.71795289,-176.67119153,-71.29446584,-43.66349161,-178.02160654,-61.81955722
-62.64176246,-60.36686148,-168.01627097

>  <CHROM.1>
-117.37589652,-29.75519116,17.28911616,-16.49812289,-0.49981081,0.77222655
-1.20208314

>  <Name>
N6,N6-dimethyladenine

>  <RI>
0

>  <Rbt.Current_Directory>
/home/fstefaniak/projects/zuza/docking/adenine/4TZX

>  <Rbt.Executable>
rbdock ($Id: //depot/dev/client3/rdock/2013.1/src/exe/rbdock.cxx#4 $)

>  <Rbt.Library>
libRbt.so (2013.1, Build901 2013/11/27)

>  <Rbt.Parameter_File>
/home/fstefaniak/progs/rDock//data/scripts/dock_solv.prm

>  <Rbt.Receptor>
4tzx.prm

>  <SCORE>
-62.727

>  <SCORE.INTER>
-39.0673

>  <SCORE.INTER.CONST>
1

>  <SCORE.INTER.POLAR>
-4.2305

>  <SCORE.INTER.ROT>
1

>  <SCORE.INTER.SOLV>
13.0053

>  <SCORE.INTER.VDW>
-20.545

>  <SCORE.INTER.norm>
-3.25561

>  <SCORE.INTRA>
-2.58239

>  <SCORE.INTRA.DIHEDRAL>
-0.0210566

>  <SCORE.INTRA.DIHEDRAL.0>
0.494379

>  <SCORE.INTRA.POLAR>
0

>  <SCORE.INTRA.POLAR.0>
0

>  <SCORE.INTRA.REPUL>
0

>  <SCORE.INTRA.REPUL.0>
0

>  <SCORE.INTRA.SOLV>
0.0233203

>  <SCORE.INTRA.SOLV.lig_0>
-15.6396

>  <SCORE.INTRA.VDW>
-2.58352

>  <SCORE.INTRA.VDW.0>
2.19664

>  <SCORE.INTRA.norm>
-0.215199

>  <SCORE.RESTR>
0

>  <SCORE.RESTR.CAVITY>
0

>  <SCORE.RESTR.norm>
0

>  <SCORE.SYSTEM>
-21.0773

>  <SCORE.SYSTEM.CONST>
0

>  <SCORE.SYSTEM.DIHEDRAL>
4.65591

>  <SCORE.SYSTEM.POLAR>
-3.01508

>  <SCORE.SYSTEM.SOLV>
-0.0333557

>  <SCORE.SYSTEM.VDW>
-5.54207

>  <SCORE.SYSTEM.norm>
-1.75644

>  <SCORE.heavy>
12

>  <SCORE.norm>
-5.22725

$$$$
N6,N6-dimethyladenine
 OpenBabel12072022113D
libRbt.so/2013.1/901 2013/11/27
 13 14  0  0  0  0  0  0  0  0999 V2000
  -26.9771   16.1623  -16.2623 C   0  0  0  0  0  0  0  0  0  0  0  0
  -28.2933   15.6560  -15.9003 N   0  0  0  0  0  0  0  0  0  0  0  0
  -28.7267   14.4250  -16.5462 C   0  0  0  0  0  0  0  0  0  0  0  0
  -29.2697   16.6459  -15.7032 C   0  0  0  0  0  0  0  0  0  0  0  0
  -29.8750   17.4245  -16.7271 C   0  0  0  0  0  0  0  0  0  0  0  0
  -30.8436   18.3373  -16.3376 C   0  0  0  0  0  0  0  0  0  0  0  0
  -31.2607   18.9428  -17.4866 N   0  0  0  0  0  0  0  0  0  0  0  0
  -31.9691   19.6583  -17.5416 H   0  0  0  0  0  0  0  0  0  0  0  0
  -30.5507   18.4026  -18.5205 C   0  0  0  0  0  0  0  0  0  0  0  0
  -29.7024   17.4883  -18.1033 N   0  0  0  0  0  0  0  0  0  0  0  0
  -31.2965   18.5918  -15.1038 N   0  0  0  0  0  0  0  0  0  0  0  0
  -30.6717   17.8107  -14.2064 C   0  0  0  0  0  0  0  0  0  0  0  0
  -29.7151   16.8848  -14.4277 N   0  0  0  0  0  0  0  0  0  0  0  0
  1  2  1  0  0  0  0
  2  3  1  0  0  0  0
  2  4  1  0  0  0  0
  4  5  2  0  0  0  0
  4 13  1  0  0  0  0
  5  6  1  0  0  0  0
  5 10  1  0  0  0  0
  6  7  1  0  0  0  0
  6 11  2  0  0  0  0
  7  8  1  0  0  0  0
  7  9  1  0  0  0  0
  9 10  2  0  0  0  0
 11 12  1  0  0  0  0
 12 13  2  0  0  0  0
M  END
>  <CHROM.0>
-59.41178149,-173.90426209,-66.23976587,-42.47990192,-175.77170084,-62.32851749
-66.81178910,-58.60725953,-168.37145413

>  <CHROM.1>
72.05946858,-29.73600350,17.20223036,-16.28622207,-0.28407823,0.78901624
-1.40639868

>  <Name>
N6,N6-dimethyladenine

>  <RI>
0

>  <Rbt.Current_Directory>
/home/fstefaniak/projects/zuza/docking/adenine/4TZX

>  <Rbt.Executable>
rbdock ($Id: //depot/dev/client3/rdock/2013.1/src/exe/rbdock.cxx#4 $)

>  <Rbt.Library>
libRbt.so (2013.1, Build901 2013/11/27)

>  <Rbt.Parameter_File>
/home/fstefaniak/progs/rDock//data/scripts/dock_solv.prm

>  <Rbt.Receptor>
4tzx.prm

>  <SCORE>
-62.717

>  <SCORE.INTER>
-38.7014

>  <SCORE.INTER.CONST>
1

>  <SCORE.INTER.POLAR>
-4.2305

>  <SCORE.INTER.ROT>
1

>  <SCORE.INTER.SOLV>
12.8815

>  <SCORE.INTER.VDW>
-20.2597

>  <SCORE.INTER.norm>
-3.22511

>  <SCORE.INTRA>
-2.86438

>  <SCORE.INTRA.DIHEDRAL>
-0.0145387

>  <SCORE.INTRA.DIHEDRAL.0>
0.494379

>  <SCORE.INTRA.POLAR>
0

>  <SCORE.INTRA.POLAR.0>
0

>  <SCORE.INTRA.REPUL>
0

>  <SCORE.INTRA.REPUL.0>
0

>  <SCORE.INTRA.SOLV>
-0.103208

>  <SCORE.INTRA.SOLV.lig_0>
-15.6396

>  <SCORE.INTRA.VDW>
-2.80551

>  <SCORE.INTRA.VDW.0>
2.19664

>  <SCORE.INTRA.norm>
-0.238699

>  <SCORE.RESTR>
0

>  <SCORE.RESTR.CAVITY>
0

>  <SCORE.RESTR.norm>
0

>  <SCORE.SYSTEM>
-21.1512

>  <SCORE.SYSTEM.CONST>
0

>  <SCORE.SYSTEM.DIHEDRAL>
4.77002

>  <SCORE.SYSTEM.POLAR>
-3.06043

>  <SCORE.SYSTEM.SOLV>
-0.0297013

>  <SCORE.SYSTEM.VDW>
-5.4795

>  <SCORE.SYSTEM.norm>
-1.7626

>  <SCORE.heavy>
12

>  <SCORE.norm>
-5.22641

$$$$
N6-methyladenine
 OpenBabel12072022113D
libRbt.so/2013.1/901 2013/11/27
 13 14  0  0  0  0  0  0  0  0999 V2000
  -28.1219   14.7945  -15.9529 C   0  0  0  0  0  0  0  0  0  0  0  0
  -29.3098   15.1032  -16.7174 N   0  0  0  0  0  0  0  0  0  0  0  0
  -29.9905   16.2581  -16.3173 C   0  0  0  0  0  0  0  0  0  0  0  0
  -30.2326   17.3171  -17.2151 C   0  0  0  0  0  0  0  0  0  0  0  0
  -30.9321   18.4057  -16.7253 C   0  0  0  0  0  0  0  0  0  0  0  0
  -31.0302   19.2686  -17.7774 N   0  0  0  0  0  0  0  0  0  0  0  0
  -31.4921   20.1650  -17.7546 H   0  0  0  0  0  0  0  0  0  0  0  0
  -30.3928   18.6942  -18.8439 C   0  0  0  0  0  0  0  0  0  0  0  0
  -29.8920   17.5149  -18.5408 N   0  0  0  0  0  0  0  0  0  0  0  0
  -31.4145   18.5850  -15.4884 N   0  0  0  0  0  0  0  0  0  0  0  0
  -31.1266   17.5198  -14.7129 C   0  0  0  0  0  0  0  0  0  0  0  0
  -30.4535   16.3956  -15.0449 N   0  0  0  0  0  0  0  0  0  0  0  0
  -29.1974   15.1040  -17.7294 H   0  0  0  0  0  0  0  0  0  0  0  0
  1  2  1  0  0  0  0
  2  3  1  0  0  0  0
  2 13  1  0  0  0  0
  3  4  2  0  0  0  0
  3 12  1  0  0  0  0
  4  5  1  0  0  0  0
  4  9  1  0  0  0  0
  5  6  1  0  0  0  0
  5 10  2  0  0  0  0
  6  7  1  0  0  0  0
  6  8  1  0  0  0  0
  8  9  2  0  0  0  0
 10 11  1  0  0  0  0
 11 12  2  0  0  0  0
M  END
>  <CHROM.0>
-60.82103209,-178.05755336,-66.20012348,-43.41830268,-61.17117016,-61.30391880
-65.48228613,-60.35645000,-168.81423931

>  <CHROM.1>
122.65196278,-30.23820750,17.23387193,-16.67163429,-0.79835327,0.92474809
-1.09287428

>  <Name>
N6-methyladenine

>  <RI>
0

>  <Rbt.Current_Directory>
/home/fstefaniak/projects/zuza/docking/adenine/4TZX

>  <Rbt.Executable>
rbdock ($Id: //depot/dev/client3/rdock/2013.1/src/exe/rbdock.cxx#4 $)

>  <Rbt.Library>
libRbt.so (2013.1, Build901 2013/11/27)

>  <Rbt.Parameter_File>
/home/fstefaniak/progs/rDock//data/scripts/dock_solv.prm

>  <Rbt.Receptor>
4tzx.prm

>  <SCORE>
-64.2956

>  <SCORE.INTER>
-42.5415

>  <SCORE.INTER.CONST>
1

>  <SCORE.INTER.POLAR>
-5.03895

>  <SCORE.INTER.ROT>
1

>  <SCORE.INTER.SOLV>
14.1794

>  <SCORE.INTER.VDW>
-20.5576

>  <SCORE.INTER.norm>
-3.86741

>  <SCORE.INTRA>
-0.675354

>  <SCORE.INTRA.DIHEDRAL>
-0.00684566

>  <SCORE.INTRA.DIHEDRAL.0>
0.485619

>  <SCORE.INTRA.POLAR>
0

>  <SCORE.INTRA.POLAR.0>
0

>  <SCORE.INTRA.REPUL>
0

>  <SCORE.INTRA.REPUL.0>
0

>  <SCORE.INTRA.SOLV>
-0.0429358

>  <SCORE.INTRA.SOLV.lig_0>
-16.3399

>  <SCORE.INTRA.VDW>
-0.650464

>  <SCORE.INTRA.VDW.0>
0.597698

>  <SCORE.INTRA.norm>
-0.0613958

>  <SCORE.RESTR>
0

>  <SCORE.RESTR.CAVITY>
0

>  <SCORE.RESTR.norm>
0

>  <SCORE.SYSTEM>
-21.0787

>  <SCORE.SYSTEM.CONST>
0

>  <SCORE.SYSTEM.DIHEDRAL>
4.2594

>  <SCORE.SYSTEM.POLAR>
-3.04031

>  <SCORE.SYSTEM.SOLV>
0.156141

>  <SCORE.SYSTEM.VDW>
-5.38997

>  <SCORE.SYSTEM.norm>
-1.91625

>  <SCORE.heavy>
11

>  <SCORE.norm>
-5.84505

$$$$
N6-methyladenine
 OpenBabel12072022113D
libRbt.so/2013.1/901 2013/11/27
 13 14  0  0  0  0  0  0  0  0999 V2000
  -28.1633   14.7749  -15.9602 C   0  0  0  0  0  0  0  0  0  0  0  0
  -29.3434   15.1008  -16.7295 N   0  0  0  0  0  0  0  0  0  0  0  0
  -30.0159   16.2587  -16.3245 C   0  0  0  0  0  0  0  0  0  0  0  0
  -30.2649   17.3164  -17.2219 C   0  0  0  0  0  0  0  0  0  0  0  0
  -30.9554   18.4083  -16.7268 C   0  0  0  0  0  0  0  0  0  0  0  0
  -31.0629   19.2691  -17.7798 N   0  0  0  0  0  0  0  0  0  0  0  0
  -31.5217   20.1670  -17.7538 H   0  0  0  0  0  0  0  0  0  0  0  0
  -30.4396   18.6902  -18.8521 C   0  0  0  0  0  0  0  0  0  0  0  0
  -29.9389   17.5100  -18.5520 N   0  0  0  0  0  0  0  0  0  0  0  0
  -31.4230   18.5920  -15.4848 N   0  0  0  0  0  0  0  0  0  0  0  0
  -31.1295   17.5277  -14.7102 C   0  0  0  0  0  0  0  0  0  0  0  0
  -30.4637   16.4007  -15.0472 N   0  0  0  0  0  0  0  0  0  0  0  0
  -29.2245   15.1087  -17.7408 H   0  0  0  0  0  0  0  0  0  0  0  0
  1  2  1  0  0  0  0
  2  3  1  0  0  0  0
  2 13  1  0  0  0  0
  3  4  2  0  0  0  0
  3 12  1  0  0  0  0
  4  5  1  0  0  0  0
  4  9  1  0  0  0  0
  5  6  1  0  0  0  0
  5 10  2  0  0  0  0
  6  7  1  0  0  0  0
  6  8  1  0  0  0  0
  8  9  2  0  0  0  0
 10 11  1  0  0  0  0
 11 12  2  0  0  0  0
M  END
>  <CHROM.0>
-59.98950304,-178.46949530,-63.60908054,-43.49650931,-58.77115090,-60.77446935
-66.99171219,-60.73247424,-168.88066601

>  <CHROM.1>
123.88753606,-30.26599796,17.23296416,-16.67644031,-0.78726798,0.93467869
-1.10700175

>  <Name>
N6-methyladenine

>  <RI>
0

>  <Rbt.Current_Directory>
/home/fstefaniak/projects/zuza/docking/adenine/4TZX

>  <Rbt.Executable>
rbdock ($Id: //depot/dev/client3/rdock/2013.1/src/exe/rbdock.cxx#4 $)

>  <Rbt.Library>
libRbt.so (2013.1, Build901 2013/11/27)

>  <Rbt.Parameter_File>
/home/fstefaniak/progs/rDock//data/scripts/dock_solv.prm

>  <Rbt.Receptor>
4tzx.prm

>  <SCORE>
-64.2432

>  <SCORE.INTER>
-42.5293

>  <SCORE.INTER.CONST>
1

>  <SCORE.INTER.POLAR>
-5.02698

>  <SCORE.INTER.ROT>
1

>  <SCORE.INTER.SOLV>
14.2231

>  <SCORE.INTER.VDW>
-20.604

>  <SCORE.INTER.norm>
-3.8663

>  <SCORE.INTRA>
-0.650655

>  <SCORE.INTRA.DIHEDRAL>
-0.00646617

>  <SCORE.INTRA.DIHEDRAL.0>
0.485619

>  <SCORE.INTRA.POLAR>
0

>  <SCORE.INTRA.POLAR.0>
0

>  <SCORE.INTRA.REPUL>
0

>  <SCORE.INTRA.REPUL.0>
0

>  <SCORE.INTRA.SOLV>
-0.0407026

>  <SCORE.INTRA.SOLV.lig_0>
-16.3399

>  <SCORE.INTRA.VDW>
-0.62707

>  <SCORE.INTRA.VDW.0>
0.597698

>  <SCORE.INTRA.norm>
-0.0591504

>  <SCORE.RESTR>
0

>  <SCORE.RESTR.CAVITY>
0

>  <SCORE.RESTR.norm>
0

>  <SCORE.SYSTEM>
-21.0632

>  <SCORE.SYSTEM.CONST>
0

>  <SCORE.SYSTEM.DIHEDRAL>
4.19919

>  <SCORE.SYSTEM.POLAR>
-3.0475

>  <SCORE.SYSTEM.SOLV>
0.16159

>  <SCORE.SYSTEM.VDW>
-5.33741

>  <SCORE.SYSTEM.norm>
-1.91484

>  <SCORE.heavy>
11

>  <SCORE.norm>
-5.84029

$$$$
N6-methyladenine
 OpenBabel12072022113D
libRbt.so/2013.1/901 2013/11/27
 13 14  0  0  0  0  0  0  0  0999 V2000
  -28.0939   14.7684  -16.0353 C   0  0  0  0  0  0  0  0  0  0  0  0
  -29.3078   15.0782  -16.7573 N   0  0  0  0  0  0  0  0  0  0  0  0
  -29.9658   16.2409  -16.3423 C   0  0  0  0  0  0  0  0  0  0  0  0
  -30.2242   17.2987  -17.2370 C   0  0  0  0  0  0  0  0  0  0  0  0
  -30.8990   18.3957  -16.7315 C   0  0  0  0  0  0  0  0  0  0  0  0
  -31.0198   19.2554  -17.7839 N   0  0  0  0  0  0  0  0  0  0  0  0
  -31.4726   20.1562  -17.7512 H   0  0  0  0  0  0  0  0  0  0  0  0
  -30.4194   18.6709  -18.8661 C   0  0  0  0  0  0  0  0  0  0  0  0
  -29.9207   17.4881  -18.5729 N   0  0  0  0  0  0  0  0  0  0  0  0
  -31.3432   18.5843  -15.4817 N   0  0  0  0  0  0  0  0  0  0  0  0
  -31.0425   17.5194  -14.7106 C   0  0  0  0  0  0  0  0  0  0  0  0
  -30.3899   16.3878  -15.0575 N   0  0  0  0  0  0  0  0  0  0  0  0
  -29.2335   15.0694  -17.7728 H   0  0  0  0  0  0  0  0  0  0  0  0
  1  2  1  0  0  0  0
  2  3  1  0  0  0  0
  2 13  1  0  0  0  0
  3  4  2  0  0  0  0
  3 12  1  0  0  0  0
  4  5  1  0  0  0  0
  4  9  1  0  0  0  0
  5  6  1  0  0  0  0
  5 10  2  0  0  0  0
  6  7  1  0  0  0  0
  6  8  1  0  0  0  0
  8  9  2  0  0  0  0
 10 11  1  0  0  0  0
 11 12  2  0  0  0  0
M  END
>  <CHROM.0>
-59.29955495,-177.91131147,-66.52830601,-42.86963018,-56.13290673,-62.30827416
-65.90430516,-60.25575963,-168.46195002

>  <CHROM.1>
122.07795980,-30.21400505,17.21828345,-16.69412983,-0.75948758,0.94523654
-1.12678875

>  <Name>
N6-methyladenine

>  <RI>
0

>  <Rbt.Current_Directory>
/home/fstefaniak/projects/zuza/docking/adenine/4TZX

>  <Rbt.Executable>
rbdock ($Id: //depot/dev/client3/rdock/2013.1/src/exe/rbdock.cxx#4 $)

>  <Rbt.Library>
libRbt.so (2013.1, Build901 2013/11/27)

>  <Rbt.Parameter_File>
/home/fstefaniak/progs/rDock//data/scripts/dock_solv.prm

>  <Rbt.Receptor>
4tzx.prm

>  <SCORE>
-64.24

>  <SCORE.INTER>
-42.5174

>  <SCORE.INTER.CONST>
1

>  <SCORE.INTER.POLAR>
-4.9468

>  <SCORE.INTER.ROT>
1

>  <SCORE.INTER.SOLV>
14.1104

>  <SCORE.INTER.VDW>
-20.8257

>  <SCORE.INTER.norm>
-3.86522

>  <SCORE.INTRA>
-0.686582

>  <SCORE.INTRA.DIHEDRAL>
-0.0070203

>  <SCORE.INTRA.DIHEDRAL.0>
0.485619

>  <SCORE.INTRA.POLAR>
0

>  <SCORE.INTRA.POLAR.0>
0

>  <SCORE.INTRA.REPUL>
0

>  <SCORE.INTRA.REPUL.0>
0

>  <SCORE.INTRA.SOLV>
-0.0439791

>  <SCORE.INTRA.SOLV.lig_0>
-16.3399

>  <SCORE.INTRA.VDW>
-0.661083

>  <SCORE.INTRA.VDW.0>
0.597698

>  <SCORE.INTRA.norm>
-0.0624166

>  <SCORE.RESTR>
0

>  <SCORE.RESTR.CAVITY>
0

>  <SCORE.RESTR.norm>
0

>  <SCORE.SYSTEM>
-21.0359

>  <SCORE.SYSTEM.CONST>
0

>  <SCORE.SYSTEM.DIHEDRAL>
4.49126

>  <SCORE.SYSTEM.POLAR>
-3.0604

>  <SCORE.SYSTEM.SOLV>
0.162484

>  <SCORE.SYSTEM.VDW>
-5.37388

>  <SCORE.SYSTEM.norm>
-1.91236

>  <SCORE.heavy>
11

>  <SCORE.norm>
-5.84

$$$$
P04819452
 OpenBabel12072022113D
libRbt.so/2013.1/901 2013/11/27
 13 13  0  0  0  0  0  0  0  0999 V2000
  -29.3534   18.0435  -16.5146 C   0  0  0  0  0  0  0  0  0  0  0  0
  -29.9577   16.6690  -16.6512 C   0  0  2  0  0  0  0  0  0  0  0  0
  -30.5146   17.8225  -17.4505 C   0  0  1  0  0  0  0  0  0  0  0  0
  -31.8278   18.4803  -17.1828 C   0  0  0  0  0  0  0  0  0  0  0  0
  -32.6845   18.6286  -18.0958 O   0  0  0  0  0  0  0  0  0  0  0  0
  -31.9525   18.7730  -15.9450 O   0  5  0  0  0  0  0  0  0  0  0  0
  -30.2357   17.7810  -18.9170 N   0  3  0  0  0  0  0  0  0  0  0  0
  -30.2084   18.7067  -19.3387 H   0  0  0  0  0  0  0  0  0  0  0  0
  -29.4531   17.1705  -19.1457 H   0  0  0  0  0  0  0  0  0  0  0  0
  -31.1113   17.3043  -19.2655 H   0  0  0  0  0  0  0  0  0  0  0  0
  -30.7227   16.0416  -15.5369 C   0  0  0  0  0  0  0  0  0  0  0  0
  -30.6047   16.9026  -14.4114 O   0  0  0  0  0  0  0  0  0  0  0  0
  -31.0653   17.7264  -14.6529 H   0  0  0  0  0  0  0  0  0  0  0  0
  1  2  1  0  0  0  0
  1  3  1  0  0  0  0
  2  3  1  0  0  0  0
  2 11  1  1  0  0  0
  3  4  1  1  0  0  0
  3  7  1  0  0  0  0
  4  5  2  0  0  0  0
  4  6  1  0  0  0  0
  7  8  1  0  0  0  0
  7  9  1  0  0  0  0
  7 10  1  0  0  0  0
 11 12  1  0  0  0  0
 12 13  1  0  0  0  0
M  CHG  2   6  -1   7   1
M  END
>  <CHROM.0>
-59.11523382,-39.92405281,-59.96473772,-42.91322052,-55.85247447,-58.26650787
-65.90482701,-59.31243569,-168.04553847

>  <CHROM.1>
-6.11969734,160.10166190,-84.47566039,65.55030459,-30.89734198,17.69609467
-16.74269330,-1.20861073,0.54509564,-1.28847766

>  <Name>
P04819452

>  <RI>
0

>  <Rbt.Current_Directory>
/home/fstefaniak/projects/zuza/docking/adenine/4TZX

>  <Rbt.Executable>
rbdock ($Id: //depot/dev/client3/rdock/2013.1/src/exe/rbdock.cxx#4 $)

>  <Rbt.Library>
libRbt.so (2013.1, Build901 2013/11/27)

>  <Rbt.Parameter_File>
/home/fstefaniak/progs/rDock//data/scripts/dock_solv.prm

>  <Rbt.Receptor>
4tzx.prm

>  <SCORE>
-48.6897

>  <SCORE.INTER>
-25.3379

>  <SCORE.INTER.CONST>
1

>  <SCORE.INTER.POLAR>
-5.58105

>  <SCORE.INTER.ROT>
2

>  <SCORE.INTER.SOLV>
27.0403

>  <SCORE.INTER.VDW>
-12.2352

>  <SCORE.INTER.norm>
-2.81533

>  <SCORE.INTRA>
-3.79141

>  <SCORE.INTRA.DIHEDRAL>
-3.14232

>  <SCORE.INTRA.DIHEDRAL.0>
7.09876

>  <SCORE.INTRA.POLAR>
-1.09195

>  <SCORE.INTRA.POLAR.0>
0

>  <SCORE.INTRA.REPUL>
0

>  <SCORE.INTRA.REPUL.0>
0

>  <SCORE.INTRA.SOLV>
1.16093

>  <SCORE.INTRA.SOLV.lig_0>
-48.565

>  <SCORE.INTRA.VDW>
0.911918

>  <SCORE.INTRA.VDW.0>
0.225516

>  <SCORE.INTRA.norm>
-0.421268

>  <SCORE.RESTR>
0

>  <SCORE.RESTR.CAVITY>
0

>  <SCORE.RESTR.norm>
0

>  <SCORE.SYSTEM>
-19.5604

>  <SCORE.SYSTEM.CONST>
0

>  <SCORE.SYSTEM.DIHEDRAL>
6.08969

>  <SCORE.SYSTEM.POLAR>
-3.07144

>  <SCORE.SYSTEM.SOLV>
0.278115

>  <SCORE.SYSTEM.VDW>
-4.92471

>  <SCORE.SYSTEM.norm>
-2.17337

>  <SCORE.heavy>
9

>  <SCORE.norm>
-5.40997

$$$$
P04819452
 OpenBabel12072022113D
libRbt.so/2013.1/901 2013/11/27
 13 13  0  0  0  0  0  0  0  0999 V2000
  -29.3496   18.0310  -16.4816 C   0  0  0  0  0  0  0  0  0  0  0  0
  -29.9529   16.6555  -16.6122 C   0  0  2  0  0  0  0  0  0  0  0  0
  -30.5069   17.8039  -17.4209 C   0  0  1  0  0  0  0  0  0  0  0  0
  -31.8213   18.4628  -17.1627 C   0  0  0  0  0  0  0  0  0  0  0  0
  -32.6750   18.6038  -18.0798 O   0  0  0  0  0  0  0  0  0  0  0  0
  -31.9506   18.7646  -15.9276 O   0  5  0  0  0  0  0  0  0  0  0  0
  -30.2219   17.7534  -18.8859 N   0  3  0  0  0  0  0  0  0  0  0  0
  -30.9535   17.2819  -19.4131 H   0  0  0  0  0  0  0  0  0  0  0  0
  -29.9260   18.6556  -19.2547 H   0  0  0  0  0  0  0  0  0  0  0  0
  -29.3744   17.1233  -18.8950 H   0  0  0  0  0  0  0  0  0  0  0  0
  -30.7222   16.0347  -15.4972 C   0  0  0  0  0  0  0  0  0  0  0  0
  -30.6259   16.9125  -14.3826 O   0  0  0  0  0  0  0  0  0  0  0  0
  -31.1056   17.7220  -14.6350 H   0  0  0  0  0  0  0  0  0  0  0  0
  1  2  1  0  0  0  0
  1  3  1  0  0  0  0
  2  3  1  0  0  0  0
  2 11  1  1  0  0  0
  3  4  1  1  0  0  0
  3  7  1  0  0  0  0
  4  5  2  0  0  0  0
  4  6  1  0  0  0  0
  7  8  1  0  0  0  0
  7  9  1  0  0  0  0
  7 10  1  0  0  0  0
 11 12  1  0  0  0  0
 12 13  1  0  0  0  0
M  CHG  2   6  -1   7   1
M  END
>  <CHROM.0>
-61.05163693,-45.86645621,-70.77410932,-42.88831624,-59.16403451,-62.41729883
-170.67000544,-64.05640334,-168.69651254

>  <CHROM.1>
-5.26252237,160.18349896,159.54525747,66.43078848,-30.89116058,17.68262797
-16.71400458,-1.21971334,0.54115022,-1.28901918

>  <Name>
P04819452

>  <RI>
0

>  <Rbt.Current_Directory>
/home/fstefaniak/projects/zuza/docking/adenine/4TZX

>  <Rbt.Executable>
rbdock ($Id: //depot/dev/client3/rdock/2013.1/src/exe/rbdock.cxx#4 $)

>  <Rbt.Library>
libRbt.so (2013.1, Build901 2013/11/27)

>  <Rbt.Parameter_File>
/home/fstefaniak/progs/rDock//data/scripts/dock_solv.prm

>  <Rbt.Receptor>
4tzx.prm

>  <SCORE>
-47.918

>  <SCORE.INTER>
-24.7064

>  <SCORE.INTER.CONST>
1

>  <SCORE.INTER.POLAR>
-5.44543

>  <SCORE.INTER.ROT>
2

>  <SCORE.INTER.SOLV>
27.3972

>  <SCORE.INTER.VDW>
-12.3853

>  <SCORE.INTER.norm>
-2.74516

>  <SCORE.INTRA>
-3.43023

>  <SCORE.INTRA.DIHEDRAL>
-3.02371

>  <SCORE.INTRA.DIHEDRAL.0>
7.09876

>  <SCORE.INTRA.POLAR>
-1.07146

>  <SCORE.INTRA.POLAR.0>
0

>  <SCORE.INTRA.REPUL>
0

>  <SCORE.INTRA.REPUL.0>
0

>  <SCORE.INTRA.SOLV>
0.817103

>  <SCORE.INTRA.SOLV.lig_0>
-48.565

>  <SCORE.INTRA.VDW>
1.31604

>  <SCORE.INTRA.VDW.0>
0.225516

>  <SCORE.INTRA.norm>
-0.381137

>  <SCORE.RESTR>
0

>  <SCORE.RESTR.CAVITY>
0

>  <SCORE.RESTR.norm>
0

>  <SCORE.SYSTEM>
-19.7813

>  <SCORE.SYSTEM.CONST>
0

>  <SCORE.SYSTEM.DIHEDRAL>
5.93628

>  <SCORE.SYSTEM.POLAR>
-3.0351

>  <SCORE.SYSTEM.SOLV>
0.190572

>  <SCORE.SYSTEM.VDW>
-5.11282

>  <SCORE.SYSTEM.norm>
-2.19792

>  <SCORE.heavy>
9

>  <SCORE.norm>
-5.32422

$$$$
P04819452
 OpenBabel12072022113D
libRbt.so/2013.1/901 2013/11/27
 13 13  0  0  0  0  0  0  0  0999 V2000
  -29.3583   18.0519  -16.5572 C   0  0  0  0  0  0  0  0  0  0  0  0
  -29.9610   16.6761  -16.6872 C   0  0  2  0  0  0  0  0  0  0  0  0
  -30.5278   17.8279  -17.4820 C   0  0  1  0  0  0  0  0  0  0  0  0
  -31.8398   18.4831  -17.2023 C   0  0  0  0  0  0  0  0  0  0  0  0
  -32.7062   18.6274  -18.1069 O   0  0  0  0  0  0  0  0  0  0  0  0
  -31.9526   18.7781  -15.9639 O   0  5  0  0  0  0  0  0  0  0  0  0
  -30.2626   17.7860  -18.9509 N   0  3  0  0  0  0  0  0  0  0  0  0
  -30.2281   18.7122  -19.3711 H   0  0  0  0  0  0  0  0  0  0  0  0
  -29.4895   17.1667  -19.1879 H   0  0  0  0  0  0  0  0  0  0  0  0
  -31.1469   17.3204  -19.2924 H   0  0  0  0  0  0  0  0  0  0  0  0
  -30.7141   16.0478  -15.5653 C   0  0  0  0  0  0  0  0  0  0  0  0
  -30.5838   16.9076  -14.4403 O   0  0  0  0  0  0  0  0  0  0  0  0
  -31.0228   17.7417  -14.6865 H   0  0  0  0  0  0  0  0  0  0  0  0
  1  2  1  0  0  0  0
  1  3  1  0  0  0  0
  2  3  1  0  0  0  0
  2 11  1  1  0  0  0
  3  4  1  1  0  0  0
  3  7  1  0  0  0  0
  4  5  2  0  0  0  0
  4  6  1  0  0  0  0
  7  8  1  0  0  0  0
  7  9  1  0  0  0  0
  7 10  1  0  0  0  0
 11 12  1  0  0  0  0
 12 13  1  0  0  0  0
M  CHG  2   6  -1   7   1
M  END
>  <CHROM.0>
-57.20305013,54.94660908,61.62315941,-43.39566230,59.99111299,-59.72971345
57.02769627,-60.09877502,-167.90161721

>  <CHROM.1>
-6.30039841,160.19956003,-83.66062914,63.84151306,-30.90294905,17.70099407
-16.77038744,-1.19606477,0.54576115,-1.29544239

>  <Name>
P04819452

>  <RI>
0

>  <Rbt.Current_Directory>
/home/fstefaniak/projects/zuza/docking/adenine/4TZX

>  <Rbt.Executable>
rbdock ($Id: //depot/dev/client3/rdock/2013.1/src/exe/rbdock.cxx#4 $)

>  <Rbt.Library>
libRbt.so (2013.1, Build901 2013/11/27)

>  <Rbt.Parameter_File>
/home/fstefaniak/progs/rDock//data/scripts/dock_solv.prm

>  <Rbt.Receptor>
4tzx.prm

>  <SCORE>
-47.5119

>  <SCORE.INTER>
-26.2921

>  <SCORE.INTER.CONST>
1

>  <SCORE.INTER.POLAR>
-5.79044

>  <SCORE.INTER.ROT>
2

>  <SCORE.INTER.SOLV>
26.9972

>  <SCORE.INTER.VDW>
-12.159

>  <SCORE.INTER.norm>
-2.92135

>  <SCORE.INTRA>
-3.80252

>  <SCORE.INTRA.DIHEDRAL>
-3.20738

>  <SCORE.INTRA.DIHEDRAL.0>
7.09876

>  <SCORE.INTRA.POLAR>
-1.11196

>  <SCORE.INTRA.POLAR.0>
0

>  <SCORE.INTRA.REPUL>
0

>  <SCORE.INTRA.REPUL.0>
0

>  <SCORE.INTRA.SOLV>
1.15675

>  <SCORE.INTRA.SOLV.lig_0>
-48.565

>  <SCORE.INTRA.VDW>
1.00346

>  <SCORE.INTRA.VDW.0>
0.225516

>  <SCORE.INTRA.norm>
-0.422503

>  <SCORE.RESTR>
0

>  <SCORE.RESTR.CAVITY>
0

>  <SCORE.RESTR.norm>
0

>  <SCORE.SYSTEM>
-17.4172

>  <SCORE.SYSTEM.CONST>
0

>  <SCORE.SYSTEM.DIHEDRAL>
4.21777

>  <SCORE.SYSTEM.POLAR>
-3.05998

>  <SCORE.SYSTEM.SOLV>
-0.0524776

>  <SCORE.SYSTEM.VDW>
-2.80001

>  <SCORE.SYSTEM.norm>
-1.93525

>  <SCORE.heavy>
9

>  <SCORE.norm>
-5.2791

$$$$
P05621203
 OpenBabel12072022113D
libRbt.so/2013.1/901 2013/11/27
 16 16  0  0  0  0  0  0  0  0999 V2000
  -31.6671   17.9784  -15.8250 C   0  0  0  0  0  0  0  0  0  0  0  0
  -30.7233   17.4809  -16.9460 C   0  0  2  0  0  0  0  0  0  0  0  0
  -29.4246   17.0230  -16.2376 C   0  0  1  0  0  0  0  0  0  0  0  0
  -29.5589   17.5652  -14.8136 C   0  0  1  0  0  0  0  0  0  0  0  0
  -31.0546   17.3987  -14.5647 C   0  0  1  0  0  0  0  0  0  0  0  0
  -31.4482   18.1125  -13.3315 N   0  3  0  0  0  0  0  0  0  0  0  0
  -30.9306   19.0073  -13.3122 H   0  0  0  0  0  0  0  0  0  0  0  0
  -32.4462   18.3514  -13.2944 H   0  0  0  0  0  0  0  0  0  0  0  0
  -31.1973   17.5936  -12.4815 H   0  0  0  0  0  0  0  0  0  0  0  0
  -28.8293   16.8438  -13.8338 O   0  0  0  0  0  0  0  0  0  0  0  0
  -29.4120   15.5959  -16.1364 O   0  0  0  0  0  0  0  0  0  0  0  0
  -30.4639   18.5591  -17.9942 C   0  0  0  0  0  0  0  0  0  0  0  0
  -30.0438   17.9208  -19.1874 O   0  0  0  0  0  0  0  0  0  0  0  0
  -28.8375   17.4023  -13.0234 H   0  0  0  0  0  0  0  0  0  0  0  0
  -30.2689   15.3356  -15.7382 H   0  0  0  0  0  0  0  0  0  0  0  0
  -30.7874   17.3825  -19.5184 H   0  0  0  0  0  0  0  0  0  0  0  0
  1  2  1  0  0  0  0
  1  5  1  0  0  0  0
  2  3  1  0  0  0  0
  2 12  1  6  0  0  0
  3 11  1  1  0  0  0
  3  4  1  0  0  0  0
  4 10  1  1  0  0  0
  4  5  1  0  0  0  0
  5  6  1  1  0  0  0
  6  7  1  0  0  0  0
  6  8  1  0  0  0  0
  6  9  1  0  0  0  0
 10 14  1  0  0  0  0
 11 15  1  0  0  0  0
 12 13  1  0  0  0  0
 13 16  1  0  0  0  0
M  CHG  1   6   1
M  END
>  <CHROM.0>
-56.76118251,-172.38869488,-67.57641700,-42.57988953,-56.94615879,-59.13450327
-67.62911922,59.15885644,-169.26853424

>  <CHROM.1>
-158.36888698,-51.29920151,167.65308686,-74.49567785,65.00669859,-30.25074678
17.42617109,-15.85988659,1.58913854,-0.68069021,1.67236920

>  <Name>
P05621203

>  <RI>
0

>  <Rbt.Current_Directory>
/home/fstefaniak/projects/zuza/docking/adenine/4TZX

>  <Rbt.Executable>
rbdock ($Id: //depot/dev/client3/rdock/2013.1/src/exe/rbdock.cxx#4 $)

>  <Rbt.Library>
libRbt.so (2013.1, Build901 2013/11/27)

>  <Rbt.Parameter_File>
/home/fstefaniak/progs/rDock//data/scripts/dock_solv.prm

>  <Rbt.Receptor>
4tzx.prm

>  <SCORE>
-63.2921

>  <SCORE.INTER>
-42.3213

>  <SCORE.INTER.CONST>
1

>  <SCORE.INTER.POLAR>
-6.56615

>  <SCORE.INTER.ROT>
1

>  <SCORE.INTER.SOLV>
22.8622

>  <SCORE.INTER.VDW>
-18.2144

>  <SCORE.INTER.norm>
-4.23213

>  <SCORE.INTRA>
-0.986377

>  <SCORE.INTRA.DIHEDRAL>
-4.42052

>  <SCORE.INTRA.DIHEDRAL.0>
7.97804

>  <SCORE.INTRA.POLAR>
0.277109

>  <SCORE.INTRA.POLAR.0>
-0.277109

>  <SCORE.INTRA.REPUL>
0

>  <SCORE.INTRA.REPUL.0>
0

>  <SCORE.INTRA.SOLV>
0.137377

>  <SCORE.INTRA.SOLV.lig_0>
-36.6266

>  <SCORE.INTRA.VDW>
0.213022

>  <SCORE.INTRA.VDW.0>
-0.310771

>  <SCORE.INTRA.norm>
-0.0986377

>  <SCORE.RESTR>
0

>  <SCORE.RESTR.CAVITY>
0

>  <SCORE.RESTR.norm>
0

>  <SCORE.SYSTEM>
-19.9845

>  <SCORE.SYSTEM.CONST>
0

>  <SCORE.SYSTEM.DIHEDRAL>
4.88405

>  <SCORE.SYSTEM.POLAR>
-3.07427

>  <SCORE.SYSTEM.SOLV>
-0.00834262

>  <SCORE.SYSTEM.VDW>
-4.70067

>  <SCORE.SYSTEM.norm>
-1.99845

>  <SCORE.heavy>
10

>  <SCORE.norm>
-6.32921

$$$$
P05621203
 OpenBabel12072022113D
libRbt.so/2013.1/901 2013/11/27
 16 16  0  0  0  0  0  0  0  0999 V2000
  -31.1807   18.0689  -15.1222 C   0  0  0  0  0  0  0  0  0  0  0  0
  -30.9517   17.7912  -16.6273 C   0  0  2  0  0  0  0  0  0  0  0  0
  -29.4830   17.3174  -16.7546 C   0  0  1  0  0  0  0  0  0  0  0  0
  -28.8605   17.6454  -15.3964 C   0  0  1  0  0  0  0  0  0  0  0  0
  -30.0224   17.3560  -14.4515 C   0  0  1  0  0  0  0  0  0  0  0  0
  -29.7167   17.8649  -13.0977 N   0  3  0  0  0  0  0  0  0  0  0  0
  -30.5710   17.7573  -12.5254 H   0  0  0  0  0  0  0  0  0  0  0  0
  -28.9757   17.3403  -12.6180 H   0  0  0  0  0  0  0  0  0  0  0  0
  -29.4718   18.8622  -13.1001 H   0  0  0  0  0  0  0  0  0  0  0  0
  -27.7476   16.8388  -15.0444 O   0  0  0  0  0  0  0  0  0  0  0  0
  -29.4493   15.8935  -16.8910 O   0  0  0  0  0  0  0  0  0  0  0  0
  -31.2421   19.0195  -17.4851 C   0  0  0  0  0  0  0  0  0  0  0  0
  -32.5684   18.9123  -17.9722 O   0  0  0  0  0  0  0  0  0  0  0  0
  -27.0752   16.9816  -15.7489 H   0  0  0  0  0  0  0  0  0  0  0  0
  -28.7005   15.6869  -17.4886 H   0  0  0  0  0  0  0  0  0  0  0  0
  -32.7135   19.6356  -18.6110 H   0  0  0  0  0  0  0  0  0  0  0  0
  1  2  1  0  0  0  0
  1  5  1  0  0  0  0
  2  3  1  0  0  0  0
  2 12  1  6  0  0  0
  3 11  1  1  0  0  0
  3  4  1  0  0  0  0
  4 10  1  1  0  0  0
  4  5  1  0  0  0  0
  5  6  1  1  0  0  0
  6  7  1  0  0  0  0
  6  8  1  0  0  0  0
  6  9  1  0  0  0  0
 10 14  1  0  0  0  0
 11 15  1  0  0  0  0
 12 13  1  0  0  0  0
 13 16  1  0  0  0  0
M  CHG  1   6   1
M  END
>  <CHROM.0>
-58.31697506,-59.85226081,-62.04112989,-43.12902551,-58.29957333,-61.63199371
-64.47129272,-58.73271891,-168.98646133

>  <CHROM.1>
-96.07367489,145.42960523,59.63430614,58.40008038,-172.78175306,-30.10031013
17.65808322,-15.88127008,2.50213043,0.60047202,-1.77306990

>  <Name>
P05621203

>  <RI>
0

>  <Rbt.Current_Directory>
/home/fstefaniak/projects/zuza/docking/adenine/4TZX

>  <Rbt.Executable>
rbdock ($Id: //depot/dev/client3/rdock/2013.1/src/exe/rbdock.cxx#4 $)

>  <Rbt.Library>
libRbt.so (2013.1, Build901 2013/11/27)

>  <Rbt.Parameter_File>
/home/fstefaniak/progs/rDock//data/scripts/dock_solv.prm

>  <Rbt.Receptor>
4tzx.prm

>  <SCORE>
-61.2635

>  <SCORE.INTER>
-40.5278

>  <SCORE.INTER.CONST>
1

>  <SCORE.INTER.POLAR>
-7.0943

>  <SCORE.INTER.ROT>
1

>  <SCORE.INTER.SOLV>
21.5543

>  <SCORE.INTER.VDW>
-14.8223

>  <SCORE.INTER.norm>
-4.05278

>  <SCORE.INTRA>
0.322953

>  <SCORE.INTRA.DIHEDRAL>
0.362283

>  <SCORE.INTRA.DIHEDRAL.0>
7.97804

>  <SCORE.INTRA.POLAR>
0.277109

>  <SCORE.INTRA.POLAR.0>
-0.277109

>  <SCORE.INTRA.REPUL>
0

>  <SCORE.INTRA.REPUL.0>
0

>  <SCORE.INTRA.SOLV>
-0.485087

>  <SCORE.INTRA.SOLV.lig_0>
-36.6266

>  <SCORE.INTRA.VDW>
-0.557815

>  <SCORE.INTRA.VDW.0>
-0.310771

>  <SCORE.INTRA.norm>
0.0322953

>  <SCORE.RESTR>
0

>  <SCORE.RESTR.CAVITY>
0

>  <SCORE.RESTR.norm>
0

>  <SCORE.SYSTEM>
-21.0587

>  <SCORE.SYSTEM.CONST>
0

>  <SCORE.SYSTEM.DIHEDRAL>
4.09313

>  <SCORE.SYSTEM.POLAR>
-3.0661

>  <SCORE.SYSTEM.SOLV>
0.203805

>  <SCORE.SYSTEM.VDW>
-5.25112

>  <SCORE.SYSTEM.norm>
-2.10587

>  <SCORE.heavy>
10

>  <SCORE.norm>
-6.12635

$$$$
P05621203
 OpenBabel12072022113D
libRbt.so/2013.1/901 2013/11/27
 16 16  0  0  0  0  0  0  0  0999 V2000
  -31.5771   17.9978  -15.7772 C   0  0  0  0  0  0  0  0  0  0  0  0
  -30.6120   17.4954  -16.8777 C   0  0  2  0  0  0  0  0  0  0  0  0
  -29.3334   17.0257  -16.1412 C   0  0  1  0  0  0  0  0  0  0  0  0
  -29.4957   17.5657  -14.7193 C   0  0  1  0  0  0  0  0  0  0  0  0
  -30.9979   17.4104  -14.5047 C   0  0  1  0  0  0  0  0  0  0  0  0
  -31.4138   18.1245  -13.2790 N   0  3  0  0  0  0  0  0  0  0  0  0
  -30.8842   19.0117  -13.2419 H   0  0  0  0  0  0  0  0  0  0  0  0
  -32.4089   18.3774  -13.2671 H   0  0  0  0  0  0  0  0  0  0  0  0
  -31.1928   17.5985  -12.4251 H   0  0  0  0  0  0  0  0  0  0  0  0
  -28.7942   16.8364  -13.7249 O   0  0  0  0  0  0  0  0  0  0  0  0
  -29.3342   15.5983  -16.0432 O   0  0  0  0  0  0  0  0  0  0  0  0
  -30.3205   18.5740  -17.9171 C   0  0  0  0  0  0  0  0  0  0  0  0
  -31.4628   18.7077  -18.7446 O   0  0  0  0  0  0  0  0  0  0  0  0
  -28.9378   17.3213  -12.8805 H   0  0  0  0  0  0  0  0  0  0  0  0
  -29.3932   15.2546  -16.9590 H   0  0  0  0  0  0  0  0  0  0  0  0
  -31.6161   17.8514  -19.1866 H   0  0  0  0  0  0  0  0  0  0  0  0
  1  2  1  0  0  0  0
  1  5  1  0  0  0  0
  2  3  1  0  0  0  0
  2 12  1  6  0  0  0
  3 11  1  1  0  0  0
  3  4  1  0  0  0  0
  4 10  1  1  0  0  0
  4  5  1  0  0  0  0
  5  6  1  1  0  0  0
  6  7  1  0  0  0  0
  6  8  1  0  0  0  0
  6  9  1  0  0  0  0
 10 14  1  0  0  0  0
 11 15  1  0  0  0  0
 12 13  1  0  0  0  0
 13 16  1  0  0  0  0
M  CHG  1   6   1
M  END
>  <CHROM.0>
-62.50667692,-63.51353545,-67.40751713,-42.66498429,-175.12783763,-62.56957103
-64.68203176,-55.91731588,-169.03993098

>  <CHROM.1>
-74.58848611,57.62810487,176.43371022,-74.93603405,-61.06489629,-30.33785565
17.51988286,-15.74946279,1.87909496,0.69736275,-1.51697517

>  <Name>
P05621203

>  <RI>
0

>  <Rbt.Current_Directory>
/home/fstefaniak/projects/zuza/docking/adenine/4TZX

>  <Rbt.Executable>
rbdock ($Id: //depot/dev/client3/rdock/2013.1/src/exe/rbdock.cxx#4 $)

>  <Rbt.Library>
libRbt.so (2013.1, Build901 2013/11/27)

>  <Rbt.Parameter_File>
/home/fstefaniak/progs/rDock//data/scripts/dock_solv.prm

>  <Rbt.Receptor>
4tzx.prm

>  <SCORE>
-59.029

>  <SCORE.INTER>
-35.4956

>  <SCORE.INTER.CONST>
1

>  <SCORE.INTER.POLAR>
-5.59195

>  <SCORE.INTER.ROT>
1

>  <SCORE.INTER.SOLV>
21.577

>  <SCORE.INTER.VDW>
-16.4829

>  <SCORE.INTER.norm>
-3.54956

>  <SCORE.INTRA>
-2.25535

>  <SCORE.INTRA.DIHEDRAL>
-6.24626

>  <SCORE.INTRA.DIHEDRAL.0>
7.97804

>  <SCORE.INTRA.POLAR>
0.277109

>  <SCORE.INTRA.POLAR.0>
-0.277109

>  <SCORE.INTRA.REPUL>
0

>  <SCORE.INTRA.REPUL.0>
0

>  <SCORE.INTRA.SOLV>
-0.024108

>  <SCORE.INTRA.SOLV.lig_0>
-36.6266

>  <SCORE.INTRA.VDW>
-0.0623326

>  <SCORE.INTRA.VDW.0>
-0.310771

>  <SCORE.INTRA.norm>
-0.225535

>  <SCORE.RESTR>
0

>  <SCORE.RESTR.CAVITY>
0

>  <SCORE.RESTR.norm>
0

>  <SCORE.SYSTEM>
-21.278

>  <SCORE.SYSTEM.CONST>
0

>  <SCORE.SYSTEM.DIHEDRAL>
4.64689

>  <SCORE.SYSTEM.POLAR>
-3.04675

>  <SCORE.SYSTEM.SOLV>
0.000413761

>  <SCORE.SYSTEM.VDW>
-5.57859

>  <SCORE.SYSTEM.norm>
-2.1278

>  <SCORE.heavy>
10

>  <SCORE.norm>
-5.9029

$$$$
P06850086
 OpenBabel12072022113D
libRbt.so/2013.1/901 2013/11/27
 14 13  0  0  0  0  0  0  0  0999 V2000
  -29.1985   15.4035  -16.2140 C   0  0  0  0  0  0  0  0  0  0  0  0
  -30.2060   16.5431  -16.1046 C   0  0  2  0  0  0  0  0  0  0  0  0
  -29.8407   17.8018  -16.9145 C   0  0  2  0  0  0  0  0  0  0  0  0
  -30.7593   18.9922  -16.6549 C   0  0  0  0  0  0  0  0  0  0  0  0
  -31.4196   19.0438  -15.6190 O   0  0  0  0  0  0  0  0  0  0  0  0
  -30.8151   19.9776  -17.5887 N   0  0  0  0  0  0  0  0  0  0  0  0
  -29.8771   17.4272  -18.3796 N   0  3  0  0  0  0  0  0  0  0  0  0
  -29.2919   16.6113  -18.5836 H   0  0  0  0  0  0  0  0  0  0  0  0
  -30.8580   17.2380  -18.6401 H   0  0  0  0  0  0  0  0  0  0  0  0
  -29.5146   18.2098  -18.9431 H   0  0  0  0  0  0  0  0  0  0  0  0
  -30.2514   16.9527  -14.7237 O   0  0  0  0  0  0  0  0  0  0  0  0
  -30.4243   19.9291  -18.5228 H   0  0  0  0  0  0  0  0  0  0  0  0
  -31.4606   20.7460  -17.4181 H   0  0  0  0  0  0  0  0  0  0  0  0
  -30.9892   17.5914  -14.6281 H   0  0  0  0  0  0  0  0  0  0  0  0
  2 11  1  0  0  0  0
  2  1  1  1  0  0  0
  3  4  1  6  0  0  0
  3  7  1  0  0  0  0
  3  2  1  0  0  0  0
  4  5  2  0  0  0  0
  4  6  1  0  0  0  0
  6 12  1  0  0  0  0
  6 13  1  0  0  0  0
  7  8  1  0  0  0  0
  7  9  1  0  0  0  0
  7 10  1  0  0  0  0
 11 14  1  0  0  0  0
M  CHG  1   7   1
M  END
>  <CHROM.0>
-63.14370432,-55.04635598,-64.12561441,-44.37102771,-57.88570981,-65.59418691
-66.36086149,-61.67700259,-169.47246009

>  <CHROM.1>
-171.86526561,21.23715282,-53.64303235,-172.54719586,-30.30774497,17.77586658
-16.53917560,-0.81480562,1.08321721,-1.02823929

>  <Name>
P06850086

>  <RI>
0

>  <Rbt.Current_Directory>
/home/fstefaniak/projects/zuza/docking/adenine/4TZX

>  <Rbt.Executable>
rbdock ($Id: //depot/dev/client3/rdock/2013.1/src/exe/rbdock.cxx#4 $)

>  <Rbt.Library>
libRbt.so (2013.1, Build901 2013/11/27)

>  <Rbt.Parameter_File>
/home/fstefaniak/progs/rDock//data/scripts/dock_solv.prm

>  <Rbt.Receptor>
4tzx.prm

>  <SCORE>
-55.1274

>  <SCORE.INTER>
-34.2125

>  <SCORE.INTER.CONST>
1

>  <SCORE.INTER.POLAR>
-5.02276

>  <SCORE.INTER.ROT>
2

>  <SCORE.INTER.SOLV>
21.6743

>  <SCORE.INTER.VDW>
-18.2239

>  <SCORE.INTER.norm>
-4.27656

>  <SCORE.INTRA>
0.0297614

>  <SCORE.INTRA.DIHEDRAL>
-0.715536

>  <SCORE.INTRA.DIHEDRAL.0>
2.68325

>  <SCORE.INTRA.POLAR>
0.20681

>  <SCORE.INTRA.POLAR.0>
-0.30659

>  <SCORE.INTRA.REPUL>
0

>  <SCORE.INTRA.REPUL.0>
0

>  <SCORE.INTRA.SOLV>
-0.40378

>  <SCORE.INTRA.SOLV.lig_0>
-33.0667

>  <SCORE.INTRA.VDW>
-0.113735

>  <SCORE.INTRA.VDW.0>
0.205649

>  <SCORE.INTRA.norm>
0.00372017

>  <SCORE.RESTR>
0

>  <SCORE.RESTR.CAVITY>
0

>  <SCORE.RESTR.norm>
0

>  <SCORE.SYSTEM>
-20.9447

>  <SCORE.SYSTEM.CONST>
0

>  <SCORE.SYSTEM.DIHEDRAL>
4.31973

>  <SCORE.SYSTEM.POLAR>
-2.99364

>  <SCORE.SYSTEM.SOLV>
0.174031

>  <SCORE.SYSTEM.VDW>
-5.48226

>  <SCORE.SYSTEM.norm>
-2.61809

>  <SCORE.heavy>
8

>  <SCORE.norm>
-6.89093

$$$$
P06850086
 OpenBabel12072022113D
libRbt.so/2013.1/901 2013/11/27
 14 13  0  0  0  0  0  0  0  0999 V2000
  -29.1545   15.3819  -16.2596 C   0  0  0  0  0  0  0  0  0  0  0  0
  -30.1745   16.5096  -16.1423 C   0  0  2  0  0  0  0  0  0  0  0  0
  -29.8212   17.7791  -16.9403 C   0  0  2  0  0  0  0  0  0  0  0  0
  -30.7511   18.9582  -16.6698 C   0  0  0  0  0  0  0  0  0  0  0  0
  -31.4106   18.9947  -15.6328 O   0  0  0  0  0  0  0  0  0  0  0  0
  -30.8179   19.9507  -17.5954 N   0  0  0  0  0  0  0  0  0  0  0  0
  -29.8539   17.4178  -18.4089 N   0  3  0  0  0  0  0  0  0  0  0  0
  -29.2788   16.5958  -18.6166 H   0  0  0  0  0  0  0  0  0  0  0  0
  -30.8357   17.2445  -18.6768 H   0  0  0  0  0  0  0  0  0  0  0  0
  -29.4772   18.2003  -18.9633 H   0  0  0  0  0  0  0  0  0  0  0  0
  -30.2270   16.9065  -14.7579 O   0  0  0  0  0  0  0  0  0  0  0  0
  -30.4279   19.9138  -18.5304 H   0  0  0  0  0  0  0  0  0  0  0  0
  -31.4707   20.7112  -17.4177 H   0  0  0  0  0  0  0  0  0  0  0  0
  -29.3411   17.2479  -14.5136 H   0  0  0  0  0  0  0  0  0  0  0  0
  2 11  1  0  0  0  0
  2  1  1  1  0  0  0
  3  4  1  6  0  0  0
  3  7  1  0  0  0  0
  3  2  1  0  0  0  0
  4  5  2  0  0  0  0
  4  6  1  0  0  0  0
  6 12  1  0  0  0  0
  6 13  1  0  0  0  0
  7  8  1  0  0  0  0
  7  9  1  0  0  0  0
  7 10  1  0  0  0  0
 11 14  1  0  0  0  0
M  CHG  1   7   1
M  END
>  <CHROM.0>
-56.64270181,55.55380432,-64.23360573,-42.59805711,-52.66020097,-60.43594388
-65.95935226,-56.45915988,-170.45031134

>  <CHROM.1>
62.54203454,21.33785819,-52.26063626,-172.41659009,-30.27449738,17.74302688
-16.56389606,-0.78474312,1.08104566,-1.05875447

>  <Name>
P06850086

>  <RI>
0

>  <Rbt.Current_Directory>
/home/fstefaniak/projects/zuza/docking/adenine/4TZX

>  <Rbt.Executable>
rbdock ($Id: //depot/dev/client3/rdock/2013.1/src/exe/rbdock.cxx#4 $)

>  <Rbt.Library>
libRbt.so (2013.1, Build901 2013/11/27)

>  <Rbt.Parameter_File>
/home/fstefaniak/progs/rDock//data/scripts/dock_solv.prm

>  <Rbt.Receptor>
4tzx.prm

>  <SCORE>
-54.0002

>  <SCORE.INTER>
-34.5669

>  <SCORE.INTER.CONST>
1

>  <SCORE.INTER.POLAR>
-5.02968

>  <SCORE.INTER.ROT>
2

>  <SCORE.INTER.SOLV>
21.7619

>  <SCORE.INTER.VDW>
-18.4663

>  <SCORE.INTER.norm>
-4.32087

>  <SCORE.INTRA>
0.646247

>  <SCORE.INTRA.DIHEDRAL>
-0.940144

>  <SCORE.INTRA.DIHEDRAL.0>
2.68325

>  <SCORE.INTRA.POLAR>
0.30659

>  <SCORE.INTRA.POLAR.0>
-0.30659

>  <SCORE.INTRA.REPUL>
0

>  <SCORE.INTRA.REPUL.0>
0

>  <SCORE.INTRA.SOLV>
-0.470173

>  <SCORE.INTRA.SOLV.lig_0>
-33.0667

>  <SCORE.INTRA.VDW>
0.308999

>  <SCORE.INTRA.VDW.0>
0.205649

>  <SCORE.INTRA.norm>
0.0807809

>  <SCORE.RESTR>
0

>  <SCORE.RESTR.CAVITY>
0

>  <SCORE.RESTR.norm>
0

>  <SCORE.SYSTEM>
-20.0795

>  <SCORE.SYSTEM.CONST>
0

>  <SCORE.SYSTEM.DIHEDRAL>
4.572

>  <SCORE.SYSTEM.POLAR>
-3.07518

>  <SCORE.SYSTEM.SOLV>
0.291056

>  <SCORE.SYSTEM.VDW>
-4.75677

>  <SCORE.SYSTEM.norm>
-2.50994

>  <SCORE.heavy>
8

>  <SCORE.norm>
-6.75003

$$$$
P06850086
 OpenBabel12072022113D
libRbt.so/2013.1/901 2013/11/27
 14 13  0  0  0  0  0  0  0  0999 V2000
  -29.0954   15.4049  -16.2734 C   0  0  0  0  0  0  0  0  0  0  0  0
  -30.1298   16.5190  -16.1530 C   0  0  2  0  0  0  0  0  0  0  0  0
  -29.7978   17.7916  -16.9554 C   0  0  2  0  0  0  0  0  0  0  0  0
  -30.7234   18.9680  -16.6597 C   0  0  0  0  0  0  0  0  0  0  0  0
  -31.3691   18.9934  -15.6137 O   0  0  0  0  0  0  0  0  0  0  0  0
  -30.8017   19.9708  -17.5732 N   0  0  0  0  0  0  0  0  0  0  0  0
  -29.8643   17.4345  -18.4238 N   0  3  0  0  0  0  0  0  0  0  0  0
  -29.2908   16.6157  -18.6479 H   0  0  0  0  0  0  0  0  0  0  0  0
  -30.8516   17.2576  -18.6686 H   0  0  0  0  0  0  0  0  0  0  0  0
  -29.5046   18.2203  -18.9848 H   0  0  0  0  0  0  0  0  0  0  0  0
  -30.1806   16.9180  -14.7692 O   0  0  0  0  0  0  0  0  0  0  0  0
  -30.4240   19.9441  -18.5136 H   0  0  0  0  0  0  0  0  0  0  0  0
  -31.4516   20.7296  -17.3785 H   0  0  0  0  0  0  0  0  0  0  0  0
  -29.3029   17.2865  -14.5346 H   0  0  0  0  0  0  0  0  0  0  0  0
  2 11  1  0  0  0  0
  2  1  1  1  0  0  0
  3  4  1  6  0  0  0
  3  7  1  0  0  0  0
  3  2  1  0  0  0  0
  4  5  2  0  0  0  0
  4  6  1  0  0  0  0
  6 12  1  0  0  0  0
  6 13  1  0  0  0  0
  7  8  1  0  0  0  0
  7  9  1  0  0  0  0
  7 10  1  0  0  0  0
 11 14  1  0  0  0  0
M  CHG  1   7   1
M  END
>  <CHROM.0>
-57.69794289,53.34759970,-71.81748744,-43.17824386,-171.67574448,-54.47365969
-167.81419997,61.02513361,-168.85120531

>  <CHROM.1>
63.52359441,20.57031460,-52.40927902,-171.14192140,-30.24424411,17.75620118
-16.56562609,-0.75287649,1.08533819,-1.08366407

>  <Name>
P06850086

>  <RI>
0

>  <Rbt.Current_Directory>
/home/fstefaniak/projects/zuza/docking/adenine/4TZX

>  <Rbt.Executable>
rbdock ($Id: //depot/dev/client3/rdock/2013.1/src/exe/rbdock.cxx#4 $)

>  <Rbt.Library>
libRbt.so (2013.1, Build901 2013/11/27)

>  <Rbt.Parameter_File>
/home/fstefaniak/progs/rDock//data/scripts/dock_solv.prm

>  <Rbt.Receptor>
4tzx.prm

>  <SCORE>
-52.7556

>  <SCORE.INTER>
-34.6241

>  <SCORE.INTER.CONST>
1

>  <SCORE.INTER.POLAR>
-5.03188

>  <SCORE.INTER.ROT>
2

>  <SCORE.INTER.SOLV>
21.7138

>  <SCORE.INTER.VDW>
-18.481

>  <SCORE.INTER.norm>
-4.32801

>  <SCORE.INTRA>
0.667307

>  <SCORE.INTRA.DIHEDRAL>
-0.879505

>  <SCORE.INTRA.DIHEDRAL.0>
2.68325

>  <SCORE.INTRA.POLAR>
0.30659

>  <SCORE.INTRA.POLAR.0>
-0.30659

>  <SCORE.INTRA.REPUL>
0

>  <SCORE.INTRA.REPUL.0>
0

>  <SCORE.INTRA.SOLV>
-0.486665

>  <SCORE.INTRA.SOLV.lig_0>
-33.0667

>  <SCORE.INTRA.VDW>
0.307986

>  <SCORE.INTRA.VDW.0>
0.205649

>  <SCORE.INTRA.norm>
0.0834134

>  <SCORE.RESTR>
0

>  <SCORE.RESTR.CAVITY>
0

>  <SCORE.RESTR.norm>
0

>  <SCORE.SYSTEM>
-18.7988

>  <SCORE.SYSTEM.CONST>
0

>  <SCORE.SYSTEM.DIHEDRAL>
5.90475

>  <SCORE.SYSTEM.POLAR>
-3.08515

>  <SCORE.SYSTEM.SOLV>
-0.0942171

>  <SCORE.SYSTEM.VDW>
-4.18554

>  <SCORE.SYSTEM.norm>
-2.34985

>  <SCORE.heavy>
8

>  <SCORE.norm>
-6.59444

$$$$
P07497363
 OpenBabel12072022113D
libRbt.so/2013.1/901 2013/11/27
 16 16  0  0  0  0  0  0  0  0999 V2000
  -29.8946   16.9308  -17.6567 C   0  0  0  0  0  0  0  0  0  0  0  0
  -30.5227   17.1713  -16.2622 C   0  0  2  0  0  0  0  0  0  0  0  0
  -31.1888   18.5510  -16.3665 C   0  0  1  0  0  0  0  0  0  0  0  0
  -30.2595   19.3133  -17.3249 C   0  0  1  0  0  0  0  0  0  0  0  0
  -29.9981   18.2592  -18.4093 C   0  0  2  0  0  0  0  0  0  0  0  0
  -31.1912   18.2589  -19.3104 N   0  3  0  0  0  0  0  0  0  0  0  0
  -31.9001   18.9121  -18.9198 H   0  0  0  0  0  0  0  0  0  0  0  0
  -30.9109   18.7148  -20.1932 H   0  0  0  0  0  0  0  0  0  0  0  0
  -31.6123   17.3462  -19.4979 H   0  0  0  0  0  0  0  0  0  0  0  0
  -30.8721   20.4578  -17.9180 O   0  0  0  0  0  0  0  0  0  0  0  0
  -32.4684   18.3664  -17.0079 O   0  0  0  0  0  0  0  0  0  0  0  0
  -29.4738   17.1096  -15.1501 C   0  0  0  0  0  0  0  0  0  0  0  0
  -30.0967   17.4700  -13.9301 O   0  0  0  0  0  0  0  0  0  0  0  0
  -31.2837   20.9775  -17.1986 H   0  0  0  0  0  0  0  0  0  0  0  0
  -32.9584   17.7286  -16.4447 H   0  0  0  0  0  0  0  0  0  0  0  0
  -30.1285   18.4447  -13.8866 H   0  0  0  0  0  0  0  0  0  0  0  0
  1  2  1  0  0  0  0
  1  5  1  0  0  0  0
  2  3  1  0  0  0  0
  2 12  1  1  0  0  0
  3  4  1  0  0  0  0
  3 11  1  6  0  0  0
  4 10  1  6  0  0  0
  4  5  1  0  0  0  0
  5  6  1  6  0  0  0
  6  7  1  0  0  0  0
  6  8  1  0  0  0  0
  6  9  1  0  0  0  0
 10 14  1  0  0  0  0
 11 15  1  0  0  0  0
 12 13  1  0  0  0  0
 13 16  1  0  0  0  0
M  CHG  1   6   1
M  END
>  <CHROM.0>
-46.09775063,-62.13960885,-71.54226209,-43.13305228,-177.40189760,-63.86685192
-170.04946397,-63.71166609,-169.19999622

>  <CHROM.1>
174.21463066,57.95506723,49.44761287,109.42752348,-81.93869710,-30.65675229
18.22850063,-16.93399112,-1.04720580,1.07968824,-1.61669718

>  <Name>
P07497363

>  <RI>
0

>  <Rbt.Current_Directory>
/home/fstefaniak/projects/zuza/docking/adenine/4TZX

>  <Rbt.Executable>
rbdock ($Id: //depot/dev/client3/rdock/2013.1/src/exe/rbdock.cxx#4 $)

>  <Rbt.Library>
libRbt.so (2013.1, Build901 2013/11/27)

>  <Rbt.Parameter_File>
/home/fstefaniak/progs/rDock//data/scripts/dock_solv.prm

>  <Rbt.Receptor>
4tzx.prm

>  <SCORE>
-54.6102

>  <SCORE.INTER>
-37.8273

>  <SCORE.INTER.CONST>
1

>  <SCORE.INTER.POLAR>
-6.15864

>  <SCORE.INTER.ROT>
1

>  <SCORE.INTER.SOLV>
22.2518

>  <SCORE.INTER.VDW>
-16.3733

>  <SCORE.INTER.norm>
-3.78273

>  <SCORE.INTRA>
3.55007

>  <SCORE.INTRA.DIHEDRAL>
2.05346

>  <SCORE.INTRA.DIHEDRAL.0>
4.17105

>  <SCORE.INTRA.POLAR>
0.528808

>  <SCORE.INTRA.POLAR.0>
-0.89341

>  <SCORE.INTRA.REPUL>
0

>  <SCORE.INTRA.REPUL.0>
0

>  <SCORE.INTRA.SOLV>
-0.281494

>  <SCORE.INTRA.SOLV.lig_0>
-32.1591

>  <SCORE.INTRA.VDW>
0.86614

>  <SCORE.INTRA.VDW.0>
-0.592581

>  <SCORE.INTRA.norm>
0.355007

>  <SCORE.RESTR>
0

>  <SCORE.RESTR.CAVITY>
0

>  <SCORE.RESTR.norm>
0

>  <SCORE.SYSTEM>
-20.3329

>  <SCORE.SYSTEM.CONST>
0

>  <SCORE.SYSTEM.DIHEDRAL>
5.97898

>  <SCORE.SYSTEM.POLAR>
-3.14197

>  <SCORE.SYSTEM.SOLV>
-0.0199666

>  <SCORE.SYSTEM.VDW>
-5.06841

>  <SCORE.SYSTEM.norm>
-2.03329

>  <SCORE.heavy>
10

>  <SCORE.norm>
-5.46102

$$$$
P07497363
 OpenBabel12072022113D
libRbt.so/2013.1/901 2013/11/27
 16 16  0  0  0  0  0  0  0  0999 V2000
  -29.9145   16.9401  -17.6836 C   0  0  0  0  0  0  0  0  0  0  0  0
  -30.5126   17.1962  -16.2787 C   0  0  2  0  0  0  0  0  0  0  0  0
  -31.1717   18.5795  -16.3809 C   0  0  1  0  0  0  0  0  0  0  0  0
  -30.2572   19.3277  -17.3643 C   0  0  1  0  0  0  0  0  0  0  0  0
  -30.0247   18.2630  -18.4449 C   0  0  2  0  0  0  0  0  0  0  0  0
  -31.2358   18.2633  -19.3216 N   0  3  0  0  0  0  0  0  0  0  0  0
  -30.9673   18.6338  -20.2556 H   0  0  0  0  0  0  0  0  0  0  0  0
  -31.4746   17.2782  -19.5179 H   0  0  0  0  0  0  0  0  0  0  0  0
  -32.0515   18.7633  -18.9607 H   0  0  0  0  0  0  0  0  0  0  0  0
  -30.8742   20.4713  -17.9544 O   0  0  0  0  0  0  0  0  0  0  0  0
  -32.4653   18.3981  -16.9947 O   0  0  0  0  0  0  0  0  0  0  0  0
  -29.4418   17.1366  -15.1876 C   0  0  0  0  0  0  0  0  0  0  0  0
  -30.0495   17.4583  -13.9492 O   0  0  0  0  0  0  0  0  0  0  0  0
  -31.3177   20.9689  -17.2383 H   0  0  0  0  0  0  0  0  0  0  0  0
  -32.9507   17.7742  -16.4122 H   0  0  0  0  0  0  0  0  0  0  0  0
  -30.0619   18.4308  -13.8654 H   0  0  0  0  0  0  0  0  0  0  0  0
  1  2  1  0  0  0  0
  1  5  1  0  0  0  0
  2  3  1  0  0  0  0
  2 12  1  1  0  0  0
  3  4  1  0  0  0  0
  3 11  1  6  0  0  0
  4 10  1  6  0  0  0
  4  5  1  0  0  0  0
  5  6  1  6  0  0  0
  6  7  1  0  0  0  0
  6  8  1  0  0  0  0
  6  9  1  0  0  0  0
 10 14  1  0  0  0  0
 11 15  1  0  0  0  0
 12 13  1  0  0  0  0
 13 16  1  0  0  0  0
M  CHG  1   6   1
M  END
>  <CHROM.0>
-38.82480476,-61.85250113,-68.25298957,-40.44784161,-55.51105352,-68.89437962
-167.96948083,-62.39986916,-168.12730113

>  <CHROM.1>
176.55764228,58.43053217,45.82169142,-134.71749252,-84.73508759,-30.65456493
18.24038378,-16.95577038,-1.01737487,1.07936235,-1.64527675

>  <Name>
P07497363

>  <RI>
0

>  <Rbt.Current_Directory>
/home/fstefaniak/projects/zuza/docking/adenine/4TZX

>  <Rbt.Executable>
rbdock ($Id: //depot/dev/client3/rdock/2013.1/src/exe/rbdock.cxx#4 $)

>  <Rbt.Library>
libRbt.so (2013.1, Build901 2013/11/27)

>  <Rbt.Parameter_File>
/home/fstefaniak/progs/rDock//data/scripts/dock_solv.prm

>  <Rbt.Receptor>
4tzx.prm

>  <SCORE>
-54.3777

>  <SCORE.INTER>
-38.7187

>  <SCORE.INTER.CONST>
1

>  <SCORE.INTER.POLAR>
-6.49805

>  <SCORE.INTER.ROT>
1

>  <SCORE.INTER.SOLV>
22.5482

>  <SCORE.INTER.VDW>
-15.935

>  <SCORE.INTER.norm>
-3.87187

>  <SCORE.INTRA>
3.54216

>  <SCORE.INTRA.DIHEDRAL>
2.56256

>  <SCORE.INTRA.DIHEDRAL.0>
4.17105

>  <SCORE.INTRA.POLAR>
0.556057

>  <SCORE.INTRA.POLAR.0>
-0.89341

>  <SCORE.INTRA.REPUL>
0

>  <SCORE.INTRA.REPUL.0>
0

>  <SCORE.INTRA.SOLV>
-0.578171

>  <SCORE.INTRA.SOLV.lig_0>
-32.1591

>  <SCORE.INTRA.VDW>
0.659371

>  <SCORE.INTRA.VDW.0>
-0.592581

>  <SCORE.INTRA.norm>
0.354216

>  <SCORE.RESTR>
0

>  <SCORE.RESTR.CAVITY>
0

>  <SCORE.RESTR.norm>
0

>  <SCORE.SYSTEM>
-19.2011

>  <SCORE.SYSTEM.CONST>
0

>  <SCORE.SYSTEM.DIHEDRAL>
7.70774

>  <SCORE.SYSTEM.POLAR>
-3.24773

>  <SCORE.SYSTEM.SOLV>
0.175012

>  <SCORE.SYSTEM.VDW>
-4.60259

>  <SCORE.SYSTEM.norm>
-1.92011

>  <SCORE.heavy>
10

>  <SCORE.norm>
-5.43777

$$$$
P07497363
 OpenBabel12072022113D
libRbt.so/2013.1/901 2013/11/27
 16 16  0  0  0  0  0  0  0  0999 V2000
  -29.8957   16.9305  -17.6457 C   0  0  0  0  0  0  0  0  0  0  0  0
  -30.5316   17.1869  -16.2576 C   0  0  2  0  0  0  0  0  0  0  0  0
  -31.2070   18.5602  -16.3850 C   0  0  1  0  0  0  0  0  0  0  0  0
  -30.2789   19.3150  -17.3506 C   0  0  1  0  0  0  0  0  0  0  0  0
  -30.0054   18.2469  -18.4182 C   0  0  2  0  0  0  0  0  0  0  0  0
  -31.1945   18.2249  -19.3243 N   0  3  0  0  0  0  0  0  0  0  0  0
  -31.4175   17.2350  -19.5524 H   0  0  0  0  0  0  0  0  0  0  0  0
  -32.0104   18.5292  -18.7696 H   0  0  0  0  0  0  0  0  0  0  0  0
  -31.1175   18.7794  -20.1799 H   0  0  0  0  0  0  0  0  0  0  0  0
  -30.8970   20.4462  -17.9630 O   0  0  0  0  0  0  0  0  0  0  0  0
  -32.4825   18.3571  -17.0291 O   0  0  0  0  0  0  0  0  0  0  0  0
  -29.4872   17.1490  -15.1402 C   0  0  0  0  0  0  0  0  0  0  0  0
  -30.1254   17.4898  -13.9225 O   0  0  0  0  0  0  0  0  0  0  0  0
  -31.3539   20.9491  -17.2592 H   0  0  0  0  0  0  0  0  0  0  0  0
  -32.9729   17.7292  -16.4552 H   0  0  0  0  0  0  0  0  0  0  0  0
  -30.1866   18.4632  -13.8787 H   0  0  0  0  0  0  0  0  0  0  0  0
  1  2  1  0  0  0  0
  1  5  1  0  0  0  0
  2  3  1  0  0  0  0
  2 12  1  1  0  0  0
  3  4  1  0  0  0  0
  3 11  1  6  0  0  0
  4 10  1  6  0  0  0
  4  5  1  0  0  0  0
  5  6  1  6  0  0  0
  6  7  1  0  0  0  0
  6  8  1  0  0  0  0
  6  9  1  0  0  0  0
 10 14  1  0  0  0  0
 11 15  1  0  0  0  0
 12 13  1  0  0  0  0
 13 16  1  0  0  0  0
M  CHG  1   6   1
M  END
>  <CHROM.0>
-42.04486561,61.10536643,-52.02051305,-44.77727100,-54.79131073,-170.10138549
-64.48569750,-60.66330610,-168.95558398

>  <CHROM.1>
175.67467152,58.36018377,46.62732716,-25.16502677,-81.64935719,-30.67225648
18.22712460,-16.94360853,-1.06107264,1.07066151,-1.61526720

>  <Name>
P07497363

>  <RI>
0

>  <Rbt.Current_Directory>
/home/fstefaniak/projects/zuza/docking/adenine/4TZX

>  <Rbt.Executable>
rbdock ($Id: //depot/dev/client3/rdock/2013.1/src/exe/rbdock.cxx#4 $)

>  <Rbt.Library>
libRbt.so (2013.1, Build901 2013/11/27)

>  <Rbt.Parameter_File>
/home/fstefaniak/progs/rDock//data/scripts/dock_solv.prm

>  <Rbt.Receptor>
4tzx.prm

>  <SCORE>
-54.3736

>  <SCORE.INTER>
-37.4034

>  <SCORE.INTER.CONST>
1

>  <SCORE.INTER.POLAR>
-6.14517

>  <SCORE.INTER.ROT>
1

>  <SCORE.INTER.SOLV>
22.2802

>  <SCORE.INTER.VDW>
-16.1451

>  <SCORE.INTER.norm>
-3.74034

>  <SCORE.INTRA>
1.88463

>  <SCORE.INTRA.DIHEDRAL>
1.0641

>  <SCORE.INTRA.DIHEDRAL.0>
4.17105

>  <SCORE.INTRA.POLAR>
0.101143

>  <SCORE.INTRA.POLAR.0>
-0.89341

>  <SCORE.INTRA.REPUL>
0

>  <SCORE.INTRA.REPUL.0>
0

>  <SCORE.INTRA.SOLV>
-0.115235

>  <SCORE.INTRA.SOLV.lig_0>
-32.1591

>  <SCORE.INTRA.VDW>
1.06632

>  <SCORE.INTRA.VDW.0>
-0.592581

>  <SCORE.INTRA.norm>
0.188463

>  <SCORE.RESTR>
0

>  <SCORE.RESTR.CAVITY>
0

>  <SCORE.RESTR.norm>
0

>  <SCORE.SYSTEM>
-18.8549

>  <SCORE.SYSTEM.CONST>
0

>  <SCORE.SYSTEM.DIHEDRAL>
6.03232

>  <SCORE.SYSTEM.POLAR>
-3.21278

>  <SCORE.SYSTEM.SOLV>
0.174393

>  <SCORE.SYSTEM.VDW>
-3.92955

>  <SCORE.SYSTEM.norm>
-1.88549

>  <SCORE.heavy>
10

>  <SCORE.norm>
-5.43736

$$$$
P08390249
 OpenBabel12072022113D
libRbt.so/2013.1/901 2013/11/27
 12 12  0  0  0  0  0  0  0  0999 V2000
  -31.8338   18.0149  -16.6814 C   0  0  0  0  0  0  0  0  0  0  0  0
  -31.4800   17.8701  -15.2015 C   0  0  1  0  0  0  0  0  0  0  0  0
  -30.1997   17.0418  -15.0019 C   0  0  2  0  0  0  0  0  0  0  0  0
  -29.0845   17.5359  -15.9269 C   0  0  0  0  0  0  0  0  0  0  0  0
  -29.5376   17.5000  -17.2870 O   0  0  0  0  0  0  0  0  0  0  0  0
  -30.6125   18.4032  -17.5081 C   0  0  1  0  0  0  0  0  0  0  0  0
  -30.9291   18.3850  -18.8859 O   0  0  0  0  0  0  0  0  0  0  0  0
  -30.4734   15.6670  -15.3039 O   0  0  0  0  0  0  0  0  0  0  0  0
  -31.3665   19.1556  -14.5862 O   0  0  0  0  0  0  0  0  0  0  0  0
  -31.2051   17.4759  -19.0852 H   0  0  0  0  0  0  0  0  0  0  0  0
  -30.8201   15.6336  -16.2160 H   0  0  0  0  0  0  0  0  0  0  0  0
  -31.0481   19.0691  -13.6732 H   0  0  0  0  0  0  0  0  0  0  0  0
  1  2  1  0  0  0  0
  1  6  1  0  0  0  0
  2  9  1  6  0  0  0
  2  3  1  0  0  0  0
  3  4  1  0  0  0  0
  3  8  1  6  0  0  0
  4  5  1  0  0  0  0
  5  6  1  0  0  0  0
  6  7  1  6  0  0  0
  7 10  1  0  0  0  0
  8 11  1  0  0  0  0
  9 12  1  0  0  0  0
M  END
>  <CHROM.0>
-60.10961940,-177.55080827,-65.99157365,-43.71293049,-57.50596555,-64.47278784
-67.55057244,-175.26916809,-168.98780628

>  <CHROM.1>
-173.84954459,56.55642097,-60.05417565,-30.61673913,17.71872207,-16.28900082
1.55390855,0.91371045,-1.31175740

>  <Name>
P08390249

>  <RI>
0

>  <Rbt.Current_Directory>
/home/fstefaniak/projects/zuza/docking/adenine/4TZX

>  <Rbt.Executable>
rbdock ($Id: //depot/dev/client3/rdock/2013.1/src/exe/rbdock.cxx#4 $)

>  <Rbt.Library>
libRbt.so (2013.1, Build901 2013/11/27)

>  <Rbt.Parameter_File>
/home/fstefaniak/progs/rDock//data/scripts/dock_solv.prm

>  <Rbt.Receptor>
4tzx.prm

>  <SCORE>
-51.5857

>  <SCORE.INTER>
-28.5123

>  <SCORE.INTER.CONST>
1

>  <SCORE.INTER.POLAR>
-4.42737

>  <SCORE.INTER.ROT>
0

>  <SCORE.INTER.SOLV>
13.638

>  <SCORE.INTER.VDW>
-12.3963

>  <SCORE.INTER.norm>
-3.16804

>  <SCORE.INTRA>
-2.01527

>  <SCORE.INTRA.DIHEDRAL>
-3.10302

>  <SCORE.INTRA.DIHEDRAL.0>
3.42521

>  <SCORE.INTRA.POLAR>
0.0344378

>  <SCORE.INTRA.POLAR.0>
-0.0344378

>  <SCORE.INTRA.REPUL>
0

>  <SCORE.INTRA.REPUL.0>
0

>  <SCORE.INTRA.SOLV>
0.0325713

>  <SCORE.INTRA.SOLV.lig_0>
-17.1361

>  <SCORE.INTRA.VDW>
-0.597139

>  <SCORE.INTRA.VDW.0>
1.11222

>  <SCORE.INTRA.norm>
-0.223919

>  <SCORE.RESTR>
0

>  <SCORE.RESTR.CAVITY>
0

>  <SCORE.RESTR.norm>
0

>  <SCORE.SYSTEM>
-21.0581

>  <SCORE.SYSTEM.CONST>
0

>  <SCORE.SYSTEM.DIHEDRAL>
4.52416

>  <SCORE.SYSTEM.POLAR>
-3.03967

>  <SCORE.SYSTEM.SOLV>
0.0174129

>  <SCORE.SYSTEM.VDW>
-5.42034

>  <SCORE.SYSTEM.norm>
-2.33978

>  <SCORE.heavy>
9

>  <SCORE.norm>
-5.73174

$$$$
P08390249
 OpenBabel12072022113D
libRbt.so/2013.1/901 2013/11/27
 12 12  0  0  0  0  0  0  0  0999 V2000
  -31.6884   17.9951  -16.7476 C   0  0  0  0  0  0  0  0  0  0  0  0
  -31.3716   17.6360  -15.2962 C   0  0  1  0  0  0  0  0  0  0  0  0
  -30.2159   16.6260  -15.2001 C   0  0  2  0  0  0  0  0  0  0  0  0
  -29.0356   17.0683  -16.0688 C   0  0  0  0  0  0  0  0  0  0  0  0
  -29.4763   17.2491  -17.4214 O   0  0  0  0  0  0  0  0  0  0  0  0
  -30.4181   18.3078  -17.5314 C   0  0  1  0  0  0  0  0  0  0  0  0
  -30.7209   18.4898  -18.9005 O   0  0  0  0  0  0  0  0  0  0  0  0
  -30.6685   15.3439  -15.6559 O   0  0  0  0  0  0  0  0  0  0  0  0
  -31.0927   18.8158  -14.5383 O   0  0  0  0  0  0  0  0  0  0  0  0
  -31.0817   17.6433  -19.2098 H   0  0  0  0  0  0  0  0  0  0  0  0
  -30.0288   14.6795  -15.3357 H   0  0  0  0  0  0  0  0  0  0  0  0
  -30.8950   18.5888  -13.6154 H   0  0  0  0  0  0  0  0  0  0  0  0
  1  2  1  0  0  0  0
  1  6  1  0  0  0  0
  2  9  1  1  0  0  0
  2  3  1  0  0  0  0
  3  4  1  0  0  0  0
  3  8  1  6  0  0  0
  4  5  1  0  0  0  0
  5  6  1  0  0  0  0
  6  7  1  6  0  0  0
  7 10  1  0  0  0  0
  8 11  1  0  0  0  0
  9 12  1  0  0  0  0
M  END
>  <CHROM.0>
-60.88174159,-175.44372876,-67.96242667,-44.16125885,-174.95673731,-61.52197932
-63.99889907,-52.68121056,-168.83786146

>  <CHROM.1>
179.76692819,-162.96084355,-62.25211203,-30.51905058,17.48937984,-16.38940162
1.49210413,1.03238692,-1.12036818

>  <Name>
P08390249

>  <RI>
0

>  <Rbt.Current_Directory>
/home/fstefaniak/projects/zuza/docking/adenine/4TZX

>  <Rbt.Executable>
rbdock ($Id: //depot/dev/client3/rdock/2013.1/src/exe/rbdock.cxx#4 $)

>  <Rbt.Library>
libRbt.so (2013.1, Build901 2013/11/27)

>  <Rbt.Parameter_File>
/home/fstefaniak/progs/rDock//data/scripts/dock_solv.prm

>  <Rbt.Receptor>
4tzx.prm

>  <SCORE>
-49.7268

>  <SCORE.INTER>
-26.7735

>  <SCORE.INTER.CONST>
1

>  <SCORE.INTER.POLAR>
-3.8852

>  <SCORE.INTER.ROT>
0

>  <SCORE.INTER.SOLV>
13.863

>  <SCORE.INTER.VDW>
-13.1193

>  <SCORE.INTER.norm>
-2.97484

>  <SCORE.INTRA>
-1.90471

>  <SCORE.INTRA.DIHEDRAL>
-1.9786

>  <SCORE.INTRA.DIHEDRAL.0>
3.42521

>  <SCORE.INTRA.POLAR>
0.0344378

>  <SCORE.INTRA.POLAR.0>
-0.0344378

>  <SCORE.INTRA.REPUL>
0

>  <SCORE.INTRA.REPUL.0>
0

>  <SCORE.INTRA.SOLV>
0.0952164

>  <SCORE.INTRA.SOLV.lig_0>
-17.1361

>  <SCORE.INTRA.VDW>
-1.08011

>  <SCORE.INTRA.VDW.0>
1.11222

>  <SCORE.INTRA.norm>
-0.211634

>  <SCORE.RESTR>
0

>  <SCORE.RESTR.CAVITY>
0

>  <SCORE.RESTR.norm>
0

>  <SCORE.SYSTEM>
-21.0486

>  <SCORE.SYSTEM.CONST>
0

>  <SCORE.SYSTEM.DIHEDRAL>
4.63528

>  <SCORE.SYSTEM.POLAR>
-3.03386

>  <SCORE.SYSTEM.SOLV>
-0.0215345

>  <SCORE.SYSTEM.VDW>
-5.45741

>  <SCORE.SYSTEM.norm>
-2.33873

>  <SCORE.heavy>
9

>  <SCORE.norm>
-5.5252

$$$$
P08390249
 OpenBabel12072022113D
libRbt.so/2013.1/901 2013/11/27
 12 12  0  0  0  0  0  0  0  0999 V2000
  -30.4518   18.4524  -16.4259 C   0  0  0  0  0  0  0  0  0  0  0  0
  -29.4639   17.6023  -17.2244 C   0  0  1  0  0  0  0  0  0  0  0  0
  -28.8740   16.4661  -16.3725 C   0  0  2  0  0  0  0  0  0  0  0  0
  -29.9816   15.7129  -15.6313 C   0  0  0  0  0  0  0  0  0  0  0  0
  -30.7423   16.6351  -14.8393 O   0  0  0  0  0  0  0  0  0  0  0  0
  -31.4309   17.5801  -15.6473 C   0  0  1  0  0  0  0  0  0  0  0  0
  -32.2347   18.3809  -14.8036 O   0  0  0  0  0  0  0  0  0  0  0  0
  -27.9679   17.0188  -15.4082 O   0  0  0  0  0  0  0  0  0  0  0  0
  -30.0841   17.0939  -18.4081 O   0  0  0  0  0  0  0  0  0  0  0  0
  -32.7968   17.7653  -14.3062 H   0  0  0  0  0  0  0  0  0  0  0  0
  -27.2587   17.4723  -15.9028 H   0  0  0  0  0  0  0  0  0  0  0  0
  -29.4510   16.5719  -18.9267 H   0  0  0  0  0  0  0  0  0  0  0  0
  1  2  1  0  0  0  0
  1  6  1  0  0  0  0
  2  9  1  6  0  0  0
  2  3  1  0  0  0  0
  3  4  1  0  0  0  0
  3  8  1  1  0  0  0
  4  5  1  0  0  0  0
  5  6  1  0  0  0  0
  6  7  1  1  0  0  0
  7 10  1  0  0  0  0
  8 11  1  0  0  0  0
  9 12  1  0  0  0  0
M  END
>  <CHROM.0>
-59.26838319,54.84319181,-64.53170733,-43.21806699,59.82381704,-67.86628289
-66.65029034,59.21160903,-168.71823382

>  <CHROM.1>
178.61710139,-60.53038253,-177.02734681,-30.14191512,17.22095352,-16.07076375
2.70573688,-0.45630861,1.80373748

>  <Name>
P08390249

>  <RI>
0

>  <Rbt.Current_Directory>
/home/fstefaniak/projects/zuza/docking/adenine/4TZX

>  <Rbt.Executable>
rbdock ($Id: //depot/dev/client3/rdock/2013.1/src/exe/rbdock.cxx#4 $)

>  <Rbt.Library>
libRbt.so (2013.1, Build901 2013/11/27)

>  <Rbt.Parameter_File>
/home/fstefaniak/progs/rDock//data/scripts/dock_solv.prm

>  <Rbt.Receptor>
4tzx.prm

>  <SCORE>
-49.3094

>  <SCORE.INTER>
-27.862

>  <SCORE.INTER.CONST>
1

>  <SCORE.INTER.POLAR>
-3.8945

>  <SCORE.INTER.ROT>
0

>  <SCORE.INTER.SOLV>
12.7154

>  <SCORE.INTER.VDW>
-13.4315

>  <SCORE.INTER.norm>
-3.09578

>  <SCORE.INTRA>
-2.85395

>  <SCORE.INTRA.DIHEDRAL>
-3.28874

>  <SCORE.INTRA.DIHEDRAL.0>
3.42521

>  <SCORE.INTRA.POLAR>
0.0344378

>  <SCORE.INTRA.POLAR.0>
-0.0344378

>  <SCORE.INTRA.REPUL>
0

>  <SCORE.INTRA.REPUL.0>
0

>  <SCORE.INTRA.SOLV>
0.0961672

>  <SCORE.INTRA.SOLV.lig_0>
-17.1361

>  <SCORE.INTRA.VDW>
-1.37475

>  <SCORE.INTRA.VDW.0>
1.11222

>  <SCORE.INTRA.norm>
-0.317105

>  <SCORE.RESTR>
0

>  <SCORE.RESTR.CAVITY>
0

>  <SCORE.RESTR.norm>
0

>  <SCORE.SYSTEM>
-18.5934

>  <SCORE.SYSTEM.CONST>
0

>  <SCORE.SYSTEM.DIHEDRAL>
4.65538

>  <SCORE.SYSTEM.POLAR>
-3.06287

>  <SCORE.SYSTEM.SOLV>
-0.13145

>  <SCORE.SYSTEM.VDW>
-3.69399

>  <SCORE.SYSTEM.norm>
-2.06593

>  <SCORE.heavy>
9

>  <SCORE.norm>
-5.47882

$$$$
P09082078
 OpenBabel12072022113D
libRbt.so/2013.1/901 2013/11/27
 10 10  0  0  0  0  0  0  0  0999 V2000
  -30.1290   17.8101  -17.1127 C   0  0  0  0  0  0  0  0  0  0  0  0
  -31.4374   17.6553  -16.3449 C   0  0  0  0  0  0  0  0  0  0  0  0
  -30.9752   17.6600  -14.6191 S   0  0  0  0  0  0  0  0  0  0  0  0
  -31.4461   16.4323  -14.0111 O   0  0  0  0  0  0  0  0  0  0  0  0
  -31.2609   18.9621  -14.0552 O   0  0  0  0  0  0  0  0  0  0  0  0
  -29.2117   17.5203  -14.8722 C   0  0  0  0  0  0  0  0  0  0  0  0
  -29.0405   17.0626  -16.3212 C   0  0  1  0  0  0  0  0  0  0  0  0
  -29.1428   15.5385  -16.4475 C   0  0  0  0  0  0  0  0  0  0  0  0
  -27.8387   15.0024  -16.6118 O   0  0  0  0  0  0  0  0  0  0  0  0
  -27.5068   15.3093  -17.4744 H   0  0  0  0  0  0  0  0  0  0  0  0
  1  2  1  0  0  0  0
  1  7  1  0  0  0  0
  2  3  1  0  0  0  0
  3  4  2  0  0  0  0
  3  5  2  0  0  0  0
  3  6  1  0  0  0  0
  6  7  1  0  0  0  0
  7  8  1  1  0  0  0
  8  9  1  0  0  0  0
  9 10  1  0  0  0  0
M  END
>  <CHROM.0>
-56.44860626,-61.12094871,-67.02453393,-42.35037935,-176.26260373,-61.85082620
-66.62079685,-58.01273703,-169.17391914

>  <CHROM.1>
137.96777114,-66.57885854,-30.15901679,17.11965815,-15.46169426,0.13141235
0.84434491,-0.99291480

>  <Name>
P09082078

>  <RI>
0

>  <Rbt.Current_Directory>
/home/fstefaniak/projects/zuza/docking/adenine/4TZX

>  <Rbt.Executable>
rbdock ($Id: //depot/dev/client3/rdock/2013.1/src/exe/rbdock.cxx#4 $)

>  <Rbt.Library>
libRbt.so (2013.1, Build901 2013/11/27)

>  <Rbt.Parameter_File>
/home/fstefaniak/progs/rDock//data/scripts/dock_solv.prm

>  <Rbt.Receptor>
4tzx.prm

>  <SCORE>
-40.3389

>  <SCORE.INTER>
-21.0254

>  <SCORE.INTER.CONST>
1

>  <SCORE.INTER.POLAR>
-2.33371

>  <SCORE.INTER.ROT>
1

>  <SCORE.INTER.SOLV>
9.63734

>  <SCORE.INTER.VDW>
-13.717

>  <SCORE.INTER.norm>
-2.33616

>  <SCORE.INTRA>
1.94688

>  <SCORE.INTRA.DIHEDRAL>
4.35073

>  <SCORE.INTRA.DIHEDRAL.0>
0.0449445

>  <SCORE.INTRA.POLAR>
0

>  <SCORE.INTRA.POLAR.0>
0

>  <SCORE.INTRA.REPUL>
0

>  <SCORE.INTRA.REPUL.0>
0

>  <SCORE.INTRA.SOLV>
-0.304383

>  <SCORE.INTRA.SOLV.lig_0>
-10.6788

>  <SCORE.INTRA.VDW>
-0.0762882

>  <SCORE.INTRA.VDW.0>
-0.232893

>  <SCORE.INTRA.norm>
0.21632

>  <SCORE.RESTR>
0

>  <SCORE.RESTR.CAVITY>
0

>  <SCORE.RESTR.norm>
0

>  <SCORE.SYSTEM>
-21.2603

>  <SCORE.SYSTEM.CONST>
0

>  <SCORE.SYSTEM.DIHEDRAL>
4.61369

>  <SCORE.SYSTEM.POLAR>
-3.08045

>  <SCORE.SYSTEM.SOLV>
0.00930982

>  <SCORE.SYSTEM.VDW>
-5.44637

>  <SCORE.SYSTEM.norm>
-2.36226

>  <SCORE.heavy>
9

>  <SCORE.norm>
-4.4821

$$$$
P09082078
 OpenBabel12072022113D
libRbt.so/2013.1/901 2013/11/27
 10 10  0  0  0  0  0  0  0  0999 V2000
  -29.8351   17.6338  -17.0168 C   0  0  0  0  0  0  0  0  0  0  0  0
  -31.2332   17.5458  -16.4144 C   0  0  0  0  0  0  0  0  0  0  0  0
  -31.0049   17.7723  -14.6569 S   0  0  0  0  0  0  0  0  0  0  0  0
  -31.5460   16.6185  -13.9680 O   0  0  0  0  0  0  0  0  0  0  0  0
  -31.3699   19.1273  -14.3020 O   0  0  0  0  0  0  0  0  0  0  0  0
  -29.2226   17.6412  -14.6567 C   0  0  0  0  0  0  0  0  0  0  0  0
  -28.8577   17.0130  -16.0023 C   0  0  1  0  0  0  0  0  0  0  0  0
  -28.9341   15.4831  -15.9502 C   0  0  0  0  0  0  0  0  0  0  0  0
  -30.1239   15.1050  -15.2746 O   0  0  0  0  0  0  0  0  0  0  0  0
  -30.8538   15.1719  -15.9158 H   0  0  0  0  0  0  0  0  0  0  0  0
  1  2  1  0  0  0  0
  1  7  1  0  0  0  0
  2  3  1  0  0  0  0
  3  4  2  0  0  0  0
  3  5  2  0  0  0  0
  3  6  1  0  0  0  0
  6  7  1  0  0  0  0
  7  8  1  1  0  0  0
  8  9  1  0  0  0  0
  9 10  1  0  0  0  0
M  END
>  <CHROM.0>
-60.43671748,-62.08465814,-66.53000435,-42.49704622,-58.51649187,-176.37418987
-67.83696213,-59.34330175,-169.04769067

>  <CHROM.1>
-74.09094591,80.47549690,-30.37265558,17.16619585,-15.24188302,-0.51776296
0.84404188,-0.34631389

>  <Name>
P09082078

>  <RI>
0

>  <Rbt.Current_Directory>
/home/fstefaniak/projects/zuza/docking/adenine/4TZX

>  <Rbt.Executable>
rbdock ($Id: //depot/dev/client3/rdock/2013.1/src/exe/rbdock.cxx#4 $)

>  <Rbt.Library>
libRbt.so (2013.1, Build901 2013/11/27)

>  <Rbt.Parameter_File>
/home/fstefaniak/progs/rDock//data/scripts/dock_solv.prm

>  <Rbt.Receptor>
4tzx.prm

>  <SCORE>
-39.9633

>  <SCORE.INTER>
-22.8069

>  <SCORE.INTER.CONST>
1

>  <SCORE.INTER.POLAR>
-2.96201

>  <SCORE.INTER.ROT>
1

>  <SCORE.INTER.SOLV>
10.6746

>  <SCORE.INTER.VDW>
-13.1561

>  <SCORE.INTER.norm>
-2.5341

>  <SCORE.INTRA>
3.84883

>  <SCORE.INTRA.DIHEDRAL>
2.51757

>  <SCORE.INTRA.DIHEDRAL.0>
0.0449445

>  <SCORE.INTRA.POLAR>
0

>  <SCORE.INTRA.POLAR.0>
0

>  <SCORE.INTRA.REPUL>
0

>  <SCORE.INTRA.REPUL.0>
0

>  <SCORE.INTRA.SOLV>
1.22206

>  <SCORE.INTRA.SOLV.lig_0>
-10.6788

>  <SCORE.INTRA.VDW>
1.97902

>  <SCORE.INTRA.VDW.0>
-0.232893

>  <SCORE.INTRA.norm>
0.427648

>  <SCORE.RESTR>
0

>  <SCORE.RESTR.CAVITY>
0

>  <SCORE.RESTR.norm>
0

>  <SCORE.SYSTEM>
-21.0052

>  <SCORE.SYSTEM.CONST>
0

>  <SCORE.SYSTEM.DIHEDRAL>
4.58561

>  <SCORE.SYSTEM.POLAR>
-3.05525

>  <SCORE.SYSTEM.SOLV>
0.0654566

>  <SCORE.SYSTEM.VDW>
-5.36964

>  <SCORE.SYSTEM.norm>
-2.33391

>  <SCORE.heavy>
9

>  <SCORE.norm>
-4.44036

$$$$
P09082078
 OpenBabel12072022113D
libRbt.so/2013.1/901 2013/11/27
 10 10  0  0  0  0  0  0  0  0999 V2000
  -29.8789   17.6459  -17.0491 C   0  0  0  0  0  0  0  0  0  0  0  0
  -31.2596   17.5442  -16.4098 C   0  0  0  0  0  0  0  0  0  0  0  0
  -30.9872   17.7756  -14.6592 S   0  0  0  0  0  0  0  0  0  0  0  0
  -31.4977   16.6172  -13.9549 O   0  0  0  0  0  0  0  0  0  0  0  0
  -31.3569   19.1271  -14.2963 O   0  0  0  0  0  0  0  0  0  0  0  0
  -29.2043   17.6631  -14.7060 C   0  0  0  0  0  0  0  0  0  0  0  0
  -28.8685   17.0368  -16.0602 C   0  0  1  0  0  0  0  0  0  0  0  0
  -28.9274   15.5062  -16.0043 C   0  0  0  0  0  0  0  0  0  0  0  0
  -30.1050   15.1165  -15.3140 O   0  0  0  0  0  0  0  0  0  0  0  0
  -30.0042   14.1769  -15.0785 H   0  0  0  0  0  0  0  0  0  0  0  0
  1  2  1  0  0  0  0
  1  7  1  0  0  0  0
  2  3  1  0  0  0  0
  3  4  2  0  0  0  0
  3  5  2  0  0  0  0
  3  6  1  0  0  0  0
  6  7  1  0  0  0  0
  7  8  1  1  0  0  0
  8  9  1  0  0  0  0
  9 10  1  0  0  0  0
M  END
>  <CHROM.0>
-59.73312401,-64.26556873,-66.66535056,-42.27497980,-55.01628726,-58.92729408
-68.22941804,-59.16903360,-169.49212268

>  <CHROM.1>
-73.24402197,-164.86847444,-30.35977096,17.16853213,-15.25620017,-0.50120093
0.86528634,-0.37800347

>  <Name>
P09082078

>  <RI>
0

>  <Rbt.Current_Directory>
/home/fstefaniak/projects/zuza/docking/adenine/4TZX

>  <Rbt.Executable>
rbdock ($Id: //depot/dev/client3/rdock/2013.1/src/exe/rbdock.cxx#4 $)

>  <Rbt.Library>
libRbt.so (2013.1, Build901 2013/11/27)

>  <Rbt.Parameter_File>
/home/fstefaniak/progs/rDock//data/scripts/dock_solv.prm

>  <Rbt.Receptor>
4tzx.prm

>  <SCORE>
-39.7541

>  <SCORE.INTER>
-21.5986

>  <SCORE.INTER.CONST>
1

>  <SCORE.INTER.POLAR>
-2.74693

>  <SCORE.INTER.ROT>
1

>  <SCORE.INTER.SOLV>
10.6022

>  <SCORE.INTER.VDW>
-13.0433

>  <SCORE.INTER.norm>
-2.39984

>  <SCORE.INTRA>
2.92014

>  <SCORE.INTRA.DIHEDRAL>
1.63509

>  <SCORE.INTRA.DIHEDRAL.0>
0.0449445

>  <SCORE.INTRA.POLAR>
0

>  <SCORE.INTRA.POLAR.0>
0

>  <SCORE.INTRA.REPUL>
0

>  <SCORE.INTRA.REPUL.0>
0

>  <SCORE.INTRA.SOLV>
1.32527

>  <SCORE.INTRA.SOLV.lig_0>
-10.6788

>  <SCORE.INTRA.VDW>
1.43996

>  <SCORE.INTRA.VDW.0>
-0.232893

>  <SCORE.INTRA.norm>
0.32446

>  <SCORE.RESTR>
0

>  <SCORE.RESTR.CAVITY>
0

>  <SCORE.RESTR.norm>
0

>  <SCORE.SYSTEM>
-21.0757

>  <SCORE.SYSTEM.CONST>
0

>  <SCORE.SYSTEM.DIHEDRAL>
4.72778

>  <SCORE.SYSTEM.POLAR>
-3.059

>  <SCORE.SYSTEM.SOLV>
0.190828

>  <SCORE.SYSTEM.VDW>
-5.49337

>  <SCORE.SYSTEM.norm>
-2.34175

>  <SCORE.heavy>
9

>  <SCORE.norm>
-4.41713

$$$$
P09577449
 OpenBabel12072022113D
libRbt.so/2013.1/901 2013/11/27
 14 14  0  0  0  0  0  0  0  0999 V2000
  -25.5315   15.4222  -16.5815 C   0  0  0  0  0  0  0  0  0  0  0  0
  -26.3272   16.6591  -16.1648 C   0  0  1  0  0  0  0  0  0  0  0  0
  -27.7780   16.2886  -16.0919 C   0  0  0  0  0  0  0  0  0  0  0  0
  -28.0603   14.9817  -16.1463 C   0  0  0  0  0  0  0  0  0  0  0  0
  -26.6171   14.0358  -16.2709 S   0  0  0  0  0  0  0  0  0  0  0  0
  -26.6830   13.2162  -17.4627 O   0  0  0  0  0  0  0  0  0  0  0  0
  -26.3071   13.4781  -14.9711 O   0  0  0  0  0  0  0  0  0  0  0  0
  -25.9438   17.1594  -14.8550 N   0  0  0  0  0  0  0  0  0  0  0  0
  -26.3111   18.3324  -14.2928 C   0  0  0  0  0  0  0  0  0  0  0  0
  -25.6469   19.7648  -14.7945 S   0  0  0  0  0  0  0  0  0  0  0  0
  -27.2602   18.3085  -13.3369 N   0  0  0  0  0  0  0  0  0  0  0  0
  -25.0992   16.7741  -14.4384 H   0  0  0  0  0  0  0  0  0  0  0  0
  -27.0826   17.7985  -12.4834 H   0  0  0  0  0  0  0  0  0  0  0  0
  -27.7418   19.1905  -13.1910 H   0  0  0  0  0  0  0  0  0  0  0  0
  1  2  1  0  0  0  0
  1  5  1  0  0  0  0
  2  3  1  0  0  0  0
  2  8  1  1  0  0  0
  3  4  2  0  0  0  0
  4  5  1  0  0  0  0
  5  6  2  0  0  0  0
  5  7  2  0  0  0  0
  8  9  1  0  0  0  0
  8 12  1  0  0  0  0
  9 10  2  0  0  0  0
  9 11  1  0  0  0  0
 11 13  1  0  0  0  0
 11 14  1  0  0  0  0
M  END
>  <CHROM.0>
-57.61932056,-176.96117932,-70.01868226,-42.88667030,-56.76846043,-174.27897074
-168.84539090,-59.61385992,-167.87570532

>  <CHROM.1>
169.55402870,-74.77359001,61.94973130,-26.49156155,16.24035915,-15.52450167
-1.73688044,0.90422769,0.49489559

>  <Name>
P09577449

>  <RI>
0

>  <Rbt.Current_Directory>
/home/fstefaniak/projects/zuza/docking/adenine/4TZX

>  <Rbt.Executable>
rbdock ($Id: //depot/dev/client3/rdock/2013.1/src/exe/rbdock.cxx#4 $)

>  <Rbt.Library>
libRbt.so (2013.1, Build901 2013/11/27)

>  <Rbt.Parameter_File>
/home/fstefaniak/progs/rDock//data/scripts/dock_solv.prm

>  <Rbt.Receptor>
4tzx.prm

>  <SCORE>
-55.5036

>  <SCORE.INTER>
-35.4021

>  <SCORE.INTER.CONST>
1

>  <SCORE.INTER.POLAR>
-4.97627

>  <SCORE.INTER.ROT>
3

>  <SCORE.INTER.SOLV>
12.032

>  <SCORE.INTER.VDW>
-16.6245

>  <SCORE.INTER.norm>
-3.21837

>  <SCORE.INTRA>
0.0221596

>  <SCORE.INTRA.DIHEDRAL>
0.616744

>  <SCORE.INTRA.DIHEDRAL.0>
1.51463

>  <SCORE.INTRA.POLAR>
0

>  <SCORE.INTRA.POLAR.0>
0

>  <SCORE.INTRA.REPUL>
0

>  <SCORE.INTRA.REPUL.0>
0

>  <SCORE.INTRA.SOLV>
-0.100494

>  <SCORE.INTRA.SOLV.lig_0>
-16.5034

>  <SCORE.INTRA.VDW>
-0.235965

>  <SCORE.INTRA.VDW.0>
-0.810208

>  <SCORE.INTRA.norm>
0.00201451

>  <SCORE.RESTR>
0

>  <SCORE.RESTR.CAVITY>
0

>  <SCORE.RESTR.norm>
0

>  <SCORE.SYSTEM>
-20.1237

>  <SCORE.SYSTEM.CONST>
0

>  <SCORE.SYSTEM.DIHEDRAL>
5.34801

>  <SCORE.SYSTEM.POLAR>
-3.06274

>  <SCORE.SYSTEM.SOLV>
0.0236634

>  <SCORE.SYSTEM.VDW>
-4.99724

>  <SCORE.SYSTEM.norm>
-1.82943

>  <SCORE.heavy>
11

>  <SCORE.norm>
-5.04579

$$$$
P09577449
 OpenBabel12072022113D
libRbt.so/2013.1/901 2013/11/27
 14 14  0  0  0  0  0  0  0  0999 V2000
  -30.7753   16.4190  -16.0619 C   0  0  0  0  0  0  0  0  0  0  0  0
  -31.3720   17.6963  -15.4710 C   0  0  1  0  0  0  0  0  0  0  0  0
  -30.4771   18.1721  -14.3664 C   0  0  0  0  0  0  0  0  0  0  0  0
  -29.2782   17.5844  -14.2790 C   0  0  0  0  0  0  0  0  0  0  0  0
  -29.0698   16.4026  -15.5251 S   0  0  0  0  0  0  0  0  0  0  0  0
  -28.7805   15.1178  -14.9233 O   0  0  0  0  0  0  0  0  0  0  0  0
  -28.2422   16.9644  -16.5720 O   0  0  0  0  0  0  0  0  0  0  0  0
  -31.4682   18.7736  -16.4421 N   0  0  0  0  0  0  0  0  0  0  0  0
  -31.5170   18.6539  -17.7875 C   0  0  0  0  0  0  0  0  0  0  0  0
  -30.1364   18.4302  -18.6756 S   0  0  0  0  0  0  0  0  0  0  0  0
  -32.7246   18.6851  -18.3842 N   0  0  0  0  0  0  0  0  0  0  0  0
  -31.1673   19.6983  -16.1428 H   0  0  0  0  0  0  0  0  0  0  0  0
  -32.9438   19.4505  -19.0057 H   0  0  0  0  0  0  0  0  0  0  0  0
  -33.0623   17.7853  -18.7120 H   0  0  0  0  0  0  0  0  0  0  0  0
  1  2  1  0  0  0  0
  1  5  1  0  0  0  0
  2  3  1  0  0  0  0
  2  8  1  6  0  0  0
  3  4  2  0  0  0  0
  4  5  1  0  0  0  0
  5  6  2  0  0  0  0
  5  7  2  0  0  0  0
  8  9  1  0  0  0  0
  8 12  1  0  0  0  0
  9 10  2  0  0  0  0
  9 11  1  0  0  0  0
 11 13  1  0  0  0  0
 11 14  1  0  0  0  0
M  END
>  <CHROM.0>
-63.35973006,169.09278011,-72.09762328,-43.24561353,-173.74654819,-60.18411799
-165.78508262,-59.29000389,-169.59357167

>  <CHROM.1>
23.09068191,-80.98325724,114.91109206,-30.19060275,17.48941615,-16.41483324
0.89411622,-0.56103929,1.81028097

>  <Name>
P09577449

>  <RI>
0

>  <Rbt.Current_Directory>
/home/fstefaniak/projects/zuza/docking/adenine/4TZX

>  <Rbt.Executable>
rbdock ($Id: //depot/dev/client3/rdock/2013.1/src/exe/rbdock.cxx#4 $)

>  <Rbt.Library>
libRbt.so (2013.1, Build901 2013/11/27)

>  <Rbt.Parameter_File>
/home/fstefaniak/progs/rDock//data/scripts/dock_solv.prm

>  <Rbt.Receptor>
4tzx.prm

>  <SCORE>
-52.6222

>  <SCORE.INTER>
-33.2764

>  <SCORE.INTER.CONST>
1

>  <SCORE.INTER.POLAR>
-5.74374

>  <SCORE.INTER.ROT>
3

>  <SCORE.INTER.SOLV>
13.9279

>  <SCORE.INTER.VDW>
-13.2811

>  <SCORE.INTER.norm>
-3.02513

>  <SCORE.INTRA>
0.534225

>  <SCORE.INTRA.DIHEDRAL>
1.28516

>  <SCORE.INTRA.DIHEDRAL.0>
1.51463

>  <SCORE.INTRA.POLAR>
0

>  <SCORE.INTRA.POLAR.0>
0

>  <SCORE.INTRA.REPUL>
0

>  <SCORE.INTRA.REPUL.0>
0

>  <SCORE.INTRA.SOLV>
0.292235

>  <SCORE.INTRA.SOLV.lig_0>
-16.5034

>  <SCORE.INTRA.VDW>
-0.254474

>  <SCORE.INTRA.VDW.0>
-0.810208

>  <SCORE.INTRA.norm>
0.0485659

>  <SCORE.RESTR>
0

>  <SCORE.RESTR.CAVITY>
0

>  <SCORE.RESTR.norm>
0

>  <SCORE.SYSTEM>
-19.88

>  <SCORE.SYSTEM.CONST>
0

>  <SCORE.SYSTEM.DIHEDRAL>
6.18113

>  <SCORE.SYSTEM.POLAR>
-2.99643

>  <SCORE.SYSTEM.SOLV>
-0.0419799

>  <SCORE.SYSTEM.VDW>
-5.31165

>  <SCORE.SYSTEM.norm>
-1.80728

>  <SCORE.heavy>
11

>  <SCORE.norm>
-4.78384

$$$$
P09577449
 OpenBabel12072022113D
libRbt.so/2013.1/901 2013/11/27
 14 14  0  0  0  0  0  0  0  0999 V2000
  -29.2550   14.8917  -16.0469 C   0  0  0  0  0  0  0  0  0  0  0  0
  -28.6093   16.2759  -16.1071 C   0  0  1  0  0  0  0  0  0  0  0  0
  -27.1385   16.1044  -16.3417 C   0  0  0  0  0  0  0  0  0  0  0  0
  -26.7319   14.8776  -16.6886 C   0  0  0  0  0  0  0  0  0  0  0  0
  -28.0681   13.7840  -16.7962 S   0  0  0  0  0  0  0  0  0  0  0  0
  -27.8442   12.6650  -15.9052 O   0  0  0  0  0  0  0  0  0  0  0  0
  -28.4129   13.5990  -18.1903 O   0  0  0  0  0  0  0  0  0  0  0  0
  -29.1268   17.0910  -17.1936 N   0  0  0  0  0  0  0  0  0  0  0  0
  -30.2867   17.7847  -17.2089 C   0  0  0  0  0  0  0  0  0  0  0  0
  -31.1515   18.0332  -15.8178 S   0  0  0  0  0  0  0  0  0  0  0  0
  -30.7024   18.3006  -18.3820 N   0  0  0  0  0  0  0  0  0  0  0  0
  -28.7743   16.8987  -18.1285 H   0  0  0  0  0  0  0  0  0  0  0  0
  -30.0666   18.8748  -18.9170 H   0  0  0  0  0  0  0  0  0  0  0  0
  -31.2595   17.6712  -18.9519 H   0  0  0  0  0  0  0  0  0  0  0  0
  1  2  1  0  0  0  0
  1  5  1  0  0  0  0
  2  3  1  0  0  0  0
  2  8  1  6  0  0  0
  3  4  2  0  0  0  0
  4  5  1  0  0  0  0
  5  6  2  0  0  0  0
  5  7  2  0  0  0  0
  8  9  1  0  0  0  0
  8 12  1  0  0  0  0
  9 10  2  0  0  0  0
  9 11  1  0  0  0  0
 11 13  1  0  0  0  0
 11 14  1  0  0  0  0
M  END
>  <CHROM.0>
-63.35574907,-47.68370134,-68.30922819,49.93949708,-55.45628668,-61.86957772
-67.36039272,-54.49206254,-168.79036529

>  <CHROM.1>
79.82150730,12.60034798,-52.40373616,-29.00074465,15.74816693,-16.73520854
0.30210723,-0.95067885,1.91755259

>  <Name>
P09577449

>  <RI>
0

>  <Rbt.Current_Directory>
/home/fstefaniak/projects/zuza/docking/adenine/4TZX

>  <Rbt.Executable>
rbdock ($Id: //depot/dev/client3/rdock/2013.1/src/exe/rbdock.cxx#4 $)

>  <Rbt.Library>
libRbt.so (2013.1, Build901 2013/11/27)

>  <Rbt.Parameter_File>
/home/fstefaniak/progs/rDock//data/scripts/dock_solv.prm

>  <Rbt.Receptor>
4tzx.prm

>  <SCORE>
-52.2718

>  <SCORE.INTER>
-34.589

>  <SCORE.INTER.CONST>
1

>  <SCORE.INTER.POLAR>
-3.51511

>  <SCORE.INTER.ROT>
3

>  <SCORE.INTER.SOLV>
12.2248

>  <SCORE.INTER.VDW>
-21.0172

>  <SCORE.INTER.norm>
-3.14445

>  <SCORE.INTRA>
-0.222995

>  <SCORE.INTRA.DIHEDRAL>
-0.00598822

>  <SCORE.INTRA.DIHEDRAL.0>
1.51463

>  <SCORE.INTRA.POLAR>
0

>  <SCORE.INTRA.POLAR.0>
0

>  <SCORE.INTRA.REPUL>
0

>  <SCORE.INTRA.REPUL.0>
0

>  <SCORE.INTRA.SOLV>
-0.186536

>  <SCORE.INTRA.SOLV.lig_0>
-16.5034

>  <SCORE.INTRA.VDW>
-0.126733

>  <SCORE.INTRA.VDW.0>
-0.810208

>  <SCORE.INTRA.norm>
-0.0202723

>  <SCORE.RESTR>
0

>  <SCORE.RESTR.CAVITY>
0

>  <SCORE.RESTR.norm>
0

>  <SCORE.SYSTEM>
-17.4598

>  <SCORE.SYSTEM.CONST>
0

>  <SCORE.SYSTEM.DIHEDRAL>
4.71008

>  <SCORE.SYSTEM.POLAR>
-2.4751

>  <SCORE.SYSTEM.SOLV>
0.15996

>  <SCORE.SYSTEM.VDW>
-5.0129

>  <SCORE.SYSTEM.norm>
-1.58726

>  <SCORE.heavy>
11

>  <SCORE.norm>
-4.75198

$$$$
P101123070
 OpenBabel12072022113D
libRbt.so/2013.1/901 2013/11/27
 12 11  0  0  0  0  0  0  0  0999 V2000
  -31.2040   17.8670  -14.1933 C   0  0  0  0  0  0  0  0  0  0  0  0
  -30.9771   18.0188  -15.6825 C   0  0  0  0  0  0  0  0  0  0  0  0
  -30.2255   17.1396  -16.3734 C   0  0  0  0  0  0  0  0  0  0  0  0
  -29.4893   15.8859  -16.0438 C   0  0  0  0  0  0  0  0  0  0  0  0
  -29.3833   15.5083  -14.8803 O   0  0  0  0  0  0  0  0  0  0  0  0
  -28.9474   15.2854  -17.1254 O   0  0  0  0  0  0  0  0  0  0  0  0
  -28.2433   14.0763  -16.8420 C   0  0  0  0  0  0  0  0  0  0  0  0
  -30.1426   17.5565  -17.7359 N   0  3  0  0  0  0  0  0  0  0  0  0
  -29.8380   18.5223  -17.8240 H   0  0  0  0  0  0  0  0  0  0  0  0
  -29.3867   16.9400  -18.1200 H   0  0  0  0  0  0  0  0  0  0  0  0
  -31.0020   17.3645  -18.2447 H   0  0  0  0  0  0  0  0  0  0  0  0
  -31.5436   19.0458  -16.1639 O   0  5  0  0  0  0  0  0  0  0  0  0
  1  2  1  0  0  0  0
  2  3  2  0  0  0  0
  2 12  1  0  0  0  0
  3  4  1  0  0  0  0
  3  8  1  0  0  0  0
  4  5  2  0  0  0  0
  4  6  1  0  0  0  0
  6  7  1  0  0  0  0
  8  9  1  0  0  0  0
  8 10  1  0  0  0  0
  8 11  1  0  0  0  0
M  CHG  2   8   1  12  -1
M  END
>  <CHROM.0>
-53.81342669,-63.84879278,-67.30251473,-43.42840244,-57.95011515,-60.75527797
-68.99886500,-176.78791131,-168.93195789

>  <CHROM.1>
-6.94065638,52.35501553,-179.58578528,-30.00164326,16.70014466,-16.15219550
3.09184525,0.97721084,-1.25827536

>  <Name>
P101123070

>  <RI>
0

>  <Rbt.Current_Directory>
/home/fstefaniak/projects/zuza/docking/adenine/4TZX

>  <Rbt.Executable>
rbdock ($Id: //depot/dev/client3/rdock/2013.1/src/exe/rbdock.cxx#4 $)

>  <Rbt.Library>
libRbt.so (2013.1, Build901 2013/11/27)

>  <Rbt.Parameter_File>
/home/fstefaniak/progs/rDock//data/scripts/dock_solv.prm

>  <Rbt.Receptor>
4tzx.prm

>  <SCORE>
-46.7225

>  <SCORE.INTER>
-22.7273

>  <SCORE.INTER.CONST>
1

>  <SCORE.INTER.POLAR>
-3.96921

>  <SCORE.INTER.ROT>
2

>  <SCORE.INTER.SOLV>
23.5391

>  <SCORE.INTER.VDW>
-14.7006

>  <SCORE.INTER.norm>
-2.52526

>  <SCORE.INTRA>
-2.93373

>  <SCORE.INTRA.DIHEDRAL>
-0.0845683

>  <SCORE.INTRA.DIHEDRAL.0>
1.44363

>  <SCORE.INTRA.POLAR>
-0.4168

>  <SCORE.INTRA.POLAR.0>
0

>  <SCORE.INTRA.REPUL>
0

>  <SCORE.INTRA.REPUL.0>
0

>  <SCORE.INTRA.SOLV>
0.294387

>  <SCORE.INTRA.SOLV.lig_0>
-48.0682

>  <SCORE.INTRA.VDW>
-1.62152

>  <SCORE.INTRA.VDW.0>
3.1995

>  <SCORE.INTRA.norm>
-0.32597

>  <SCORE.RESTR>
0

>  <SCORE.RESTR.CAVITY>
0

>  <SCORE.RESTR.norm>
0

>  <SCORE.SYSTEM>
-21.0614

>  <SCORE.SYSTEM.CONST>
0

>  <SCORE.SYSTEM.DIHEDRAL>
4.81737

>  <SCORE.SYSTEM.POLAR>
-3.09324

>  <SCORE.SYSTEM.SOLV>
0.0553439

>  <SCORE.SYSTEM.VDW>
-5.35441

>  <SCORE.SYSTEM.norm>
-2.34016

>  <SCORE.heavy>
9

>  <SCORE.norm>
-5.19139

$$$$
P101123070
 OpenBabel12072022113D
libRbt.so/2013.1/901 2013/11/27
 12 11  0  0  0  0  0  0  0  0999 V2000
  -31.1812   17.8679  -14.1976 C   0  0  0  0  0  0  0  0  0  0  0  0
  -30.9628   18.0088  -15.6892 C   0  0  0  0  0  0  0  0  0  0  0  0
  -30.2252   17.1178  -16.3800 C   0  0  0  0  0  0  0  0  0  0  0  0
  -29.4999   15.8583  -16.0481 C   0  0  0  0  0  0  0  0  0  0  0  0
  -29.3707   15.4978  -14.8815 O   0  0  0  0  0  0  0  0  0  0  0  0
  -28.9941   15.2324  -17.1327 O   0  0  0  0  0  0  0  0  0  0  0  0
  -28.2274   14.0644  -16.8397 C   0  0  0  0  0  0  0  0  0  0  0  0
  -30.1471   17.5261  -17.7454 N   0  3  0  0  0  0  0  0  0  0  0  0
  -29.8738   18.5006  -17.8397 H   0  0  0  0  0  0  0  0  0  0  0  0
  -29.3689   16.9317  -18.1196 H   0  0  0  0  0  0  0  0  0  0  0  0
  -30.9964   17.3017  -18.2579 H   0  0  0  0  0  0  0  0  0  0  0  0
  -31.5218   19.0389  -16.1726 O   0  5  0  0  0  0  0  0  0  0  0  0
  1  2  1  0  0  0  0
  2  3  2  0  0  0  0
  2 12  1  0  0  0  0
  3  4  1  0  0  0  0
  3  8  1  0  0  0  0
  4  5  2  0  0  0  0
  4  6  1  0  0  0  0
  6  7  1  0  0  0  0
  8  9  1  0  0  0  0
  8 10  1  0  0  0  0
  8 11  1  0  0  0  0
M  CHG  2   8   1  12  -1
M  END
>  <CHROM.0>
-60.42186915,-57.81995293,-65.36825995,-42.87086989,-55.14216816,-61.47873813
-69.14887312,60.25938554,-169.22883205

>  <CHROM.1>
-8.16252142,49.75599202,176.52678063,-29.99890535,16.68088643,-16.15739555
3.10680181,0.98406147,-1.27895936

>  <Name>
P101123070

>  <RI>
0

>  <Rbt.Current_Directory>
/home/fstefaniak/projects/zuza/docking/adenine/4TZX

>  <Rbt.Executable>
rbdock ($Id: //depot/dev/client3/rdock/2013.1/src/exe/rbdock.cxx#4 $)

>  <Rbt.Library>
libRbt.so (2013.1, Build901 2013/11/27)

>  <Rbt.Parameter_File>
/home/fstefaniak/progs/rDock//data/scripts/dock_solv.prm

>  <Rbt.Receptor>
4tzx.prm

>  <SCORE>
-45.8553

>  <SCORE.INTER>
-22.9163

>  <SCORE.INTER.CONST>
1

>  <SCORE.INTER.POLAR>
-4.01373

>  <SCORE.INTER.ROT>
2

>  <SCORE.INTER.SOLV>
23.5565

>  <SCORE.INTER.VDW>
-14.684

>  <SCORE.INTER.norm>
-2.54626

>  <SCORE.INTRA>
-2.78619

>  <SCORE.INTRA.DIHEDRAL>
-0.00648996

>  <SCORE.INTRA.DIHEDRAL.0>
1.44363

>  <SCORE.INTRA.POLAR>
-0.38264

>  <SCORE.INTRA.POLAR.0>
0

>  <SCORE.INTRA.REPUL>
0

>  <SCORE.INTRA.REPUL.0>
0

>  <SCORE.INTRA.SOLV>
0.290187

>  <SCORE.INTRA.SOLV.lig_0>
-48.0682

>  <SCORE.INTRA.VDW>
-1.62706

>  <SCORE.INTRA.VDW.0>
3.1995

>  <SCORE.INTRA.norm>
-0.309577

>  <SCORE.RESTR>
0

>  <SCORE.RESTR.CAVITY>
0

>  <SCORE.RESTR.norm>
0

>  <SCORE.SYSTEM>
-20.1527

>  <SCORE.SYSTEM.CONST>
0

>  <SCORE.SYSTEM.DIHEDRAL>
4.59782

>  <SCORE.SYSTEM.POLAR>
-3.05454

>  <SCORE.SYSTEM.SOLV>
0.0152575

>  <SCORE.SYSTEM.VDW>
-4.79105

>  <SCORE.SYSTEM.norm>
-2.23919

>  <SCORE.heavy>
9

>  <SCORE.norm>
-5.09503

$$$$
P101123070
 OpenBabel12072022113D
libRbt.so/2013.1/901 2013/11/27
 12 11  0  0  0  0  0  0  0  0999 V2000
  -31.2439   17.8386  -14.1716 C   0  0  0  0  0  0  0  0  0  0  0  0
  -30.9412   18.0229  -15.6436 C   0  0  0  0  0  0  0  0  0  0  0  0
  -30.1671   17.1503  -16.3178 C   0  0  0  0  0  0  0  0  0  0  0  0
  -29.4639   15.8791  -15.9831 C   0  0  0  0  0  0  0  0  0  0  0  0
  -29.3877   15.4920  -14.8204 O   0  0  0  0  0  0  0  0  0  0  0  0
  -28.9146   15.2742  -17.0584 O   0  0  0  0  0  0  0  0  0  0  0  0
  -28.2442   14.0471  -16.7707 C   0  0  0  0  0  0  0  0  0  0  0  0
  -30.0111   17.5985  -17.6639 N   0  3  0  0  0  0  0  0  0  0  0  0
  -29.2861   17.0851  -18.1579 H   0  0  0  0  0  0  0  0  0  0  0  0
  -30.9347   17.3557  -18.0962 H   0  0  0  0  0  0  0  0  0  0  0  0
  -29.8879   18.6067  -17.7164 H   0  0  0  0  0  0  0  0  0  0  0  0
  -31.4701   19.0688  -16.1270 O   0  5  0  0  0  0  0  0  0  0  0  0
  1  2  1  0  0  0  0
  2  3  2  0  0  0  0
  2 12  1  0  0  0  0
  3  4  1  0  0  0  0
  3  8  1  0  0  0  0
  4  5  2  0  0  0  0
  4  6  1  0  0  0  0
  6  7  1  0  0  0  0
  8  9  1  0  0  0  0
  8 10  1  0  0  0  0
  8 11  1  0  0  0  0
M  CHG  2   8   1  12  -1
M  END
>  <CHROM.0>
-60.99836536,-64.22868871,-72.40370622,-42.77809450,-59.22133857,-174.57546499
-168.55154710,-58.17907835,-169.20536977

>  <CHROM.1>
-9.04062274,168.13922827,-179.45519163,-29.96796629,16.69990931,-16.09797629
3.01499807,0.97990129,-1.17777639

>  <Name>
P101123070

>  <RI>
0

>  <Rbt.Current_Directory>
/home/fstefaniak/projects/zuza/docking/adenine/4TZX

>  <Rbt.Executable>
rbdock ($Id: //depot/dev/client3/rdock/2013.1/src/exe/rbdock.cxx#4 $)

>  <Rbt.Library>
libRbt.so (2013.1, Build901 2013/11/27)

>  <Rbt.Parameter_File>
/home/fstefaniak/progs/rDock//data/scripts/dock_solv.prm

>  <Rbt.Receptor>
4tzx.prm

>  <SCORE>
-44.5675

>  <SCORE.INTER>
-22.051

>  <SCORE.INTER.CONST>
1

>  <SCORE.INTER.POLAR>
-3.75576

>  <SCORE.INTER.ROT>
2

>  <SCORE.INTER.SOLV>
23.4212

>  <SCORE.INTER.VDW>
-14.9219

>  <SCORE.INTER.norm>
-2.45011

>  <SCORE.INTRA>
-2.17072

>  <SCORE.INTRA.DIHEDRAL>
0.0214123

>  <SCORE.INTRA.DIHEDRAL.0>
1.44363

>  <SCORE.INTRA.POLAR>
-0.173546

>  <SCORE.INTRA.POLAR.0>
0

>  <SCORE.INTRA.REPUL>
0

>  <SCORE.INTRA.REPUL.0>
0

>  <SCORE.INTRA.SOLV>
0.363545

>  <SCORE.INTRA.SOLV.lig_0>
-48.0682

>  <SCORE.INTRA.VDW>
-1.77314

>  <SCORE.INTRA.VDW.0>
3.1995

>  <SCORE.INTRA.norm>
-0.241191

>  <SCORE.RESTR>
0

>  <SCORE.RESTR.CAVITY>
0

>  <SCORE.RESTR.norm>
0

>  <SCORE.SYSTEM>
-20.3458

>  <SCORE.SYSTEM.CONST>
0

>  <SCORE.SYSTEM.DIHEDRAL>
5.46797

>  <SCORE.SYSTEM.POLAR>
-3.02705

>  <SCORE.SYSTEM.SOLV>
0.0392254

>  <SCORE.SYSTEM.VDW>
-5.30945

>  <SCORE.SYSTEM.norm>
-2.26064

>  <SCORE.heavy>
9

>  <SCORE.norm>
-4.95195

$$$$
P101128085
 OpenBabel12072022113D
libRbt.so/2013.1/901 2013/11/27
 13 13  0  0  0  0  0  0  0  0999 V2000
  -28.3073   16.4786  -16.4123 C   0  0  0  0  0  0  0  0  0  0  0  0
  -29.5229   17.3305  -16.1137 C   0  0  2  0  0  0  0  0  0  0  0  0
  -30.1682   16.6797  -14.9952 O   0  0  0  0  0  0  0  0  0  0  0  0
  -29.7883   15.3140  -15.0021 N   0  0  0  0  0  0  0  0  0  0  0  0
  -28.7743   15.2257  -15.7930 C   0  0  0  0  0  0  0  0  0  0  0  0
  -27.9839   13.7635  -16.1064 Cl  0  0  0  0  0  0  0  0  0  0  0  0
  -30.5670   17.5226  -17.2468 C   0  0  1  0  0  0  0  0  0  0  0  0
  -31.4845   18.7295  -16.9816 C   0  0  0  0  0  0  0  0  0  0  0  0
  -32.2590   18.5334  -15.8016 O   0  0  0  0  0  0  0  0  0  0  0  0
  -29.9792   17.6209  -18.6022 N   0  0  0  0  0  0  0  0  0  0  0  0
  -32.7725   17.7202  -15.9704 H   0  0  0  0  0  0  0  0  0  0  0  0
  -30.6913   17.3047  -19.2709 H   0  0  0  0  0  0  0  0  0  0  0  0
  -29.2127   16.9569  -18.7013 H   0  0  0  0  0  0  0  0  0  0  0  0
  1  2  1  0  0  0  0
  1  5  1  0  0  0  0
  2  3  1  0  0  0  0
  2  7  1  6  0  0  0
  3  4  1  0  0  0  0
  4  5  2  0  0  0  0
  5  6  1  0  0  0  0
  7  8  1  1  0  0  0
  7 10  1  0  0  0  0
  8  9  1  0  0  0  0
  9 11  1  0  0  0  0
 10 12  1  0  0  0  0
 10 13  1  0  0  0  0
M  END
>  <CHROM.0>
-58.31584345,-53.90021739,-55.27699814,-42.38985587,-60.34913027,-63.15243984
-68.35667599,-62.91673487,-168.46691204

>  <CHROM.1>
-161.84318812,-63.29441273,153.75740154,-59.21621396,-29.69820591,16.37710897
-16.29018460,-0.54196661,0.78924449,-1.05938788

>  <Name>
P101128085

>  <RI>
0

>  <Rbt.Current_Directory>
/home/fstefaniak/projects/zuza/docking/adenine/4TZX

>  <Rbt.Executable>
rbdock ($Id: //depot/dev/client3/rdock/2013.1/src/exe/rbdock.cxx#4 $)

>  <Rbt.Library>
libRbt.so (2013.1, Build901 2013/11/27)

>  <Rbt.Parameter_File>
/home/fstefaniak/progs/rDock//data/scripts/dock_solv.prm

>  <Rbt.Receptor>
4tzx.prm

>  <SCORE>
-53.2709

>  <SCORE.INTER>
-32.5288

>  <SCORE.INTER.CONST>
1

>  <SCORE.INTER.POLAR>
-4.62258

>  <SCORE.INTER.ROT>
3

>  <SCORE.INTER.SOLV>
11.9614

>  <SCORE.INTER.VDW>
-15.8644

>  <SCORE.INTER.norm>
-3.25288

>  <SCORE.INTRA>
-0.0532727

>  <SCORE.INTRA.DIHEDRAL>
-0.381358

>  <SCORE.INTRA.DIHEDRAL.0>
2.47533

>  <SCORE.INTRA.POLAR>
0

>  <SCORE.INTRA.POLAR.0>
0

>  <SCORE.INTRA.REPUL>
0

>  <SCORE.INTRA.REPUL.0>
0

>  <SCORE.INTRA.SOLV>
-1.38339

>  <SCORE.INTRA.SOLV.lig_0>
-9.65475

>  <SCORE.INTRA.VDW>
0.8291

>  <SCORE.INTRA.VDW.0>
-1.18991

>  <SCORE.INTRA.norm>
-0.00532727

>  <SCORE.RESTR>
0

>  <SCORE.RESTR.CAVITY>
0

>  <SCORE.RESTR.norm>
0

>  <SCORE.SYSTEM>
-20.6889

>  <SCORE.SYSTEM.CONST>
0

>  <SCORE.SYSTEM.DIHEDRAL>
4.78455

>  <SCORE.SYSTEM.POLAR>
-3.09592

>  <SCORE.SYSTEM.SOLV>
0.19386

>  <SCORE.SYSTEM.VDW>
-5.13233

>  <SCORE.SYSTEM.norm>
-2.06889

>  <SCORE.heavy>
10

>  <SCORE.norm>
-5.32709

$$$$
P101128085
 OpenBabel12072022113D
libRbt.so/2013.1/901 2013/11/27
 13 13  0  0  0  0  0  0  0  0999 V2000
  -28.2897   16.4700  -16.3908 C   0  0  0  0  0  0  0  0  0  0  0  0
  -29.4965   17.3331  -16.0887 C   0  0  2  0  0  0  0  0  0  0  0  0
  -30.1409   16.6919  -14.9641 O   0  0  0  0  0  0  0  0  0  0  0  0
  -29.7723   15.3231  -14.9678 N   0  0  0  0  0  0  0  0  0  0  0  0
  -28.7635   15.2233  -15.7640 C   0  0  0  0  0  0  0  0  0  0  0  0
  -27.9870   13.7535  -16.0761 Cl  0  0  0  0  0  0  0  0  0  0  0  0
  -30.5454   17.5294  -17.2167 C   0  0  1  0  0  0  0  0  0  0  0  0
  -31.4666   18.7307  -16.9394 C   0  0  0  0  0  0  0  0  0  0  0  0
  -32.2409   18.5202  -15.7617 O   0  0  0  0  0  0  0  0  0  0  0  0
  -29.9627   17.6399  -18.5734 N   0  0  0  0  0  0  0  0  0  0  0  0
  -32.7706   17.7216  -15.9489 H   0  0  0  0  0  0  0  0  0  0  0  0
  -30.6874   17.3584  -19.2441 H   0  0  0  0  0  0  0  0  0  0  0  0
  -29.2161   16.9568  -18.6913 H   0  0  0  0  0  0  0  0  0  0  0  0
  1  2  1  0  0  0  0
  1  5  1  0  0  0  0
  2  3  1  0  0  0  0
  2  7  1  6  0  0  0
  3  4  1  0  0  0  0
  4  5  2  0  0  0  0
  5  6  1  0  0  0  0
  7  8  1  1  0  0  0
  7 10  1  0  0  0  0
  8  9  1  0  0  0  0
  9 11  1  0  0  0  0
 10 12  1  0  0  0  0
 10 13  1  0  0  0  0
M  END
>  <CHROM.0>
-61.32233893,44.01306189,-69.79599912,-42.21178933,-175.66511222,-63.83518790
-169.06135606,-56.85776496,-166.99655696

>  <CHROM.1>
-162.79669649,-63.57813198,155.77689908,-60.77220235,-29.68405735,16.37752782
-16.25910662,-0.54674287,0.79150838,-1.05464097

>  <Name>
P101128085

>  <RI>
0

>  <Rbt.Current_Directory>
/home/fstefaniak/projects/zuza/docking/adenine/4TZX

>  <Rbt.Executable>
rbdock ($Id: //depot/dev/client3/rdock/2013.1/src/exe/rbdock.cxx#4 $)

>  <Rbt.Library>
libRbt.so (2013.1, Build901 2013/11/27)

>  <Rbt.Parameter_File>
/home/fstefaniak/progs/rDock//data/scripts/dock_solv.prm

>  <Rbt.Receptor>
4tzx.prm

>  <SCORE>
-52.0003

>  <SCORE.INTER>
-32.2162

>  <SCORE.INTER.CONST>
1

>  <SCORE.INTER.POLAR>
-4.5828

>  <SCORE.INTER.ROT>
3

>  <SCORE.INTER.SOLV>
11.8895

>  <SCORE.INTER.VDW>
-15.7647

>  <SCORE.INTER.norm>
-3.22162

>  <SCORE.INTRA>
-0.22663

>  <SCORE.INTRA.DIHEDRAL>
-0.587757

>  <SCORE.INTRA.DIHEDRAL.0>
2.47533

>  <SCORE.INTRA.POLAR>
0

>  <SCORE.INTRA.POLAR.0>
0

>  <SCORE.INTRA.REPUL>
0

>  <SCORE.INTRA.REPUL.0>
0

>  <SCORE.INTRA.SOLV>
-1.38207

>  <SCORE.INTRA.SOLV.lig_0>
-9.65475

>  <SCORE.INTRA.VDW>
0.758284

>  <SCORE.INTRA.VDW.0>
-1.18991

>  <SCORE.INTRA.norm>
-0.022663

>  <SCORE.RESTR>
0

>  <SCORE.RESTR.CAVITY>
0

>  <SCORE.RESTR.norm>
0

>  <SCORE.SYSTEM>
-19.5574

>  <SCORE.SYSTEM.CONST>
0

>  <SCORE.SYSTEM.DIHEDRAL>
6.60114

>  <SCORE.SYSTEM.POLAR>
-3.13344

>  <SCORE.SYSTEM.SOLV>
0.0865536

>  <SCORE.SYSTEM.VDW>
-4.82272

>  <SCORE.SYSTEM.norm>
-1.95574

>  <SCORE.heavy>
10

>  <SCORE.norm>
-5.20003

$$$$
P101128085
 OpenBabel12072022113D
libRbt.so/2013.1/901 2013/11/27
 13 13  0  0  0  0  0  0  0  0999 V2000
  -28.3538   16.5076  -16.3705 C   0  0  0  0  0  0  0  0  0  0  0  0
  -29.5565   17.4010  -16.1515 C   0  0  2  0  0  0  0  0  0  0  0  0
  -30.3143   16.7552  -15.1028 O   0  0  0  0  0  0  0  0  0  0  0  0
  -29.9870   15.3759  -15.1093 N   0  0  0  0  0  0  0  0  0  0  0  0
  -28.9164   15.2626  -15.8183 C   0  0  0  0  0  0  0  0  0  0  0  0
  -28.1592   13.7765  -16.0994 Cl  0  0  0  0  0  0  0  0  0  0  0  0
  -30.4976   17.6555  -17.3600 C   0  0  1  0  0  0  0  0  0  0  0  0
  -31.4686   18.8197  -17.0946 C   0  0  0  0  0  0  0  0  0  0  0  0
  -32.2382   18.5855  -15.9182 O   0  0  0  0  0  0  0  0  0  0  0  0
  -29.7913   17.8673  -18.6440 N   0  0  0  0  0  0  0  0  0  0  0  0
  -32.7683   17.7905  -16.1190 H   0  0  0  0  0  0  0  0  0  0  0  0
  -30.5046   18.0138  -19.3679 H   0  0  0  0  0  0  0  0  0  0  0  0
  -29.3060   17.0156  -18.9221 H   0  0  0  0  0  0  0  0  0  0  0  0
  1  2  1  0  0  0  0
  1  5  1  0  0  0  0
  2  3  1  0  0  0  0
  2  7  1  6  0  0  0
  3  4  1  0  0  0  0
  4  5  2  0  0  0  0
  5  6  1  0  0  0  0
  7  8  1  1  0  0  0
  7 10  1  0  0  0  0
  8  9  1  0  0  0  0
  9 11  1  0  0  0  0
 10 12  1  0  0  0  0
 10 13  1  0  0  0  0
M  END
>  <CHROM.0>
-56.51802875,49.39018572,-62.74445776,-42.49769197,-57.19101679,-59.87759466
-66.55671902,-62.47333368,-169.56599354

>  <CHROM.1>
-166.62806674,-56.70183289,179.36344951,-63.60100852,-29.75862539,16.45264631
-16.34587075,-0.67827386,0.76378029,-0.92846165

>  <Name>
P101128085

>  <RI>
0

>  <Rbt.Current_Directory>
/home/fstefaniak/projects/zuza/docking/adenine/4TZX

>  <Rbt.Executable>
rbdock ($Id: //depot/dev/client3/rdock/2013.1/src/exe/rbdock.cxx#4 $)

>  <Rbt.Library>
libRbt.so (2013.1, Build901 2013/11/27)

>  <Rbt.Parameter_File>
/home/fstefaniak/progs/rDock//data/scripts/dock_solv.prm

>  <Rbt.Receptor>
4tzx.prm

>  <SCORE>
-51.7808

>  <SCORE.INTER>
-30.7849

>  <SCORE.INTER.CONST>
1

>  <SCORE.INTER.POLAR>
-3.74274

>  <SCORE.INTER.ROT>
3

>  <SCORE.INTER.SOLV>
12.0315

>  <SCORE.INTER.VDW>
-17.658

>  <SCORE.INTER.norm>
-3.07849

>  <SCORE.INTRA>
-0.791183

>  <SCORE.INTRA.DIHEDRAL>
-1.4986

>  <SCORE.INTRA.DIHEDRAL.0>
2.47533

>  <SCORE.INTRA.POLAR>
0

>  <SCORE.INTRA.POLAR.0>
0

>  <SCORE.INTRA.REPUL>
0

>  <SCORE.INTRA.REPUL.0>
0

>  <SCORE.INTRA.SOLV>
-1.35059

>  <SCORE.INTRA.SOLV.lig_0>
-9.65475

>  <SCORE.INTRA.VDW>
0.633413

>  <SCORE.INTRA.VDW.0>
-1.18991

>  <SCORE.INTRA.norm>
-0.0791183

>  <SCORE.RESTR>
0

>  <SCORE.RESTR.CAVITY>
0

>  <SCORE.RESTR.norm>
0

>  <SCORE.SYSTEM>
-20.2046

>  <SCORE.SYSTEM.CONST>
0

>  <SCORE.SYSTEM.DIHEDRAL>
4.85254

>  <SCORE.SYSTEM.POLAR>
-3.11781

>  <SCORE.SYSTEM.SOLV>
0.299039

>  <SCORE.SYSTEM.VDW>
-4.79425

>  <SCORE.SYSTEM.norm>
-2.02046

>  <SCORE.heavy>
10

>  <SCORE.norm>
-5.17808

$$$$
P105879035
 OpenBabel12072022113D
libRbt.so/2013.1/901 2013/11/27
 15 15  0  0  0  0  0  0  0  0999 V2000
  -29.2285   17.5418  -17.6201 C   0  0  0  0  0  0  0  0  0  0  0  0
  -29.5208   16.3695  -16.6827 C   0  0  0  0  0  0  0  0  0  0  0  0
  -30.4551   16.6942  -15.5023 C   0  0  2  0  0  0  0  0  0  0  0  0
  -31.7941   17.2622  -15.9500 C   0  0  0  0  0  0  0  0  0  0  0  0
  -31.6216   18.6871  -16.9845 S   0  0  0  0  0  0  0  0  0  0  0  0
  -30.9870   19.7409  -16.2214 O   0  0  0  0  0  0  0  0  0  0  0  0
  -32.9016   18.9136  -17.6285 O   0  0  0  0  0  0  0  0  0  0  0  0
  -30.4885   18.1226  -18.2326 C   0  0  0  0  0  0  0  0  0  0  0  0
  -29.7705   17.5783  -14.4341 C   0  0  0  0  0  0  0  0  0  0  0  0
  -28.5564   17.6780  -14.3015 O   0  0  0  0  0  0  0  0  0  0  0  0
  -30.6202   18.2038  -13.5657 N   0  0  0  0  0  0  0  0  0  0  0  0
  -30.7485   15.4414  -14.8379 O   0  0  0  0  0  0  0  0  0  0  0  0
  -31.1655   17.6636  -12.9048 H   0  0  0  0  0  0  0  0  0  0  0  0
  -30.4091   19.1660  -13.3320 H   0  0  0  0  0  0  0  0  0  0  0  0
  -30.9585   14.7889  -15.5332 H   0  0  0  0  0  0  0  0  0  0  0  0
  1  2  1  0  0  0  0
  1  8  1  0  0  0  0
  2  3  1  0  0  0  0
  3  4  1  0  0  0  0
  3  9  1  1  0  0  0
  3 12  1  0  0  0  0
  4  5  1  0  0  0  0
  5  6  2  0  0  0  0
  5  7  2  0  0  0  0
  5  8  1  0  0  0  0
  9 10  2  0  0  0  0
  9 11  1  0  0  0  0
 11 13  1  0  0  0  0
 11 14  1  0  0  0  0
 12 15  1  0  0  0  0
M  END
>  <CHROM.0>
-58.12506589,50.13732315,-66.37212497,-43.21441026,-63.60269893,-62.31694746
-69.21839262,-60.04384596,-168.58373853

>  <CHROM.1>
-21.10864151,-45.33157865,66.82244902,-30.68061316,17.79395677,-16.06805384
-2.41506942,-0.85161563,1.42337028

>  <Name>
P105879035

>  <RI>
0

>  <Rbt.Current_Directory>
/home/fstefaniak/projects/zuza/docking/adenine/4TZX

>  <Rbt.Executable>
rbdock ($Id: //depot/dev/client3/rdock/2013.1/src/exe/rbdock.cxx#4 $)

>  <Rbt.Library>
libRbt.so (2013.1, Build901 2013/11/27)

>  <Rbt.Parameter_File>
/home/fstefaniak/progs/rDock//data/scripts/dock_solv.prm

>  <Rbt.Receptor>
4tzx.prm

>  <SCORE>
-38.4539

>  <SCORE.INTER>
-19.7277

>  <SCORE.INTER.CONST>
1

>  <SCORE.INTER.POLAR>
-4.46009

>  <SCORE.INTER.ROT>
2

>  <SCORE.INTER.SOLV>
16.0952

>  <SCORE.INTER.VDW>
-8.58324

>  <SCORE.INTER.norm>
-1.64398

>  <SCORE.INTRA>
1.57665

>  <SCORE.INTRA.DIHEDRAL>
2.27767

>  <SCORE.INTRA.DIHEDRAL.0>
0.752795

>  <SCORE.INTRA.POLAR>
0

>  <SCORE.INTRA.POLAR.0>
0

>  <SCORE.INTRA.REPUL>
0

>  <SCORE.INTRA.REPUL.0>
0

>  <SCORE.INTRA.SOLV>
-0.0891123

>  <SCORE.INTRA.SOLV.lig_0>
-16.6204

>  <SCORE.INTRA.VDW>
0.482368

>  <SCORE.INTRA.VDW.0>
-0.42874

>  <SCORE.INTRA.norm>
0.131387

>  <SCORE.RESTR>
0

>  <SCORE.RESTR.CAVITY>
0

>  <SCORE.RESTR.norm>
0

>  <SCORE.SYSTEM>
-20.3028

>  <SCORE.SYSTEM.CONST>
0

>  <SCORE.SYSTEM.DIHEDRAL>
5.08701

>  <SCORE.SYSTEM.POLAR>
-3.09559

>  <SCORE.SYSTEM.SOLV>
0.269307

>  <SCORE.SYSTEM.VDW>
-5.00201

>  <SCORE.SYSTEM.norm>
-1.6919

>  <SCORE.heavy>
12

>  <SCORE.norm>
-3.20449

$$$$
P105879035
 OpenBabel12072022113D
libRbt.so/2013.1/901 2013/11/27
 15 15  0  0  0  0  0  0  0  0999 V2000
  -29.4222   17.4318  -18.0600 C   0  0  0  0  0  0  0  0  0  0  0  0
  -29.5637   16.2758  -17.0689 C   0  0  0  0  0  0  0  0  0  0  0  0
  -30.1936   16.6500  -15.7143 C   0  0  2  0  0  0  0  0  0  0  0  0
  -31.5650   17.2934  -15.8602 C   0  0  0  0  0  0  0  0  0  0  0  0
  -31.5476   18.7086  -16.9221 S   0  0  0  0  0  0  0  0  0  0  0  0
  -30.7023   19.7234  -16.3295 O   0  0  0  0  0  0  0  0  0  0  0  0
  -32.9240   19.0081  -17.2688 O   0  0  0  0  0  0  0  0  0  0  0  0
  -30.7525   18.0838  -18.3842 C   0  0  0  0  0  0  0  0  0  0  0  0
  -29.2412   17.4920  -14.8336 C   0  0  0  0  0  0  0  0  0  0  0  0
  -28.2052   18.0050  -15.2398 O   0  0  0  0  0  0  0  0  0  0  0  0
  -29.5881   17.5718  -13.5143 N   0  0  0  0  0  0  0  0  0  0  0  0
  -30.4011   15.4143  -14.9885 O   0  0  0  0  0  0  0  0  0  0  0  0
  -29.0965   17.0198  -12.8216 H   0  0  0  0  0  0  0  0  0  0  0  0
  -30.0338   18.4281  -13.2092 H   0  0  0  0  0  0  0  0  0  0  0  0
  -30.8443   14.7933  -15.5978 H   0  0  0  0  0  0  0  0  0  0  0  0
  1  2  1  0  0  0  0
  1  8  1  0  0  0  0
  2  3  1  0  0  0  0
  3  4  1  0  0  0  0
  3  9  1  1  0  0  0
  3 12  1  0  0  0  0
  4  5  1  0  0  0  0
  5  6  2  0  0  0  0
  5  7  2  0  0  0  0
  5  8  1  0  0  0  0
  9 10  2  0  0  0  0
  9 11  1  0  0  0  0
 11 13  1  0  0  0  0
 11 14  1  0  0  0  0
 12 15  1  0  0  0  0
M  END
>  <CHROM.0>
-55.58790894,-61.74704647,-64.25874337,-42.15048880,-54.55201946,-56.45276556
-63.29844085,-58.07786409,-168.52654342

>  <CHROM.1>
12.03627442,-48.62631995,103.07530086,-30.47114475,17.75228050,-16.22502902
-2.65092100,-0.85250951,1.24617250

>  <Name>
P105879035

>  <RI>
0

>  <Rbt.Current_Directory>
/home/fstefaniak/projects/zuza/docking/adenine/4TZX

>  <Rbt.Executable>
rbdock ($Id: //depot/dev/client3/rdock/2013.1/src/exe/rbdock.cxx#4 $)

>  <Rbt.Library>
libRbt.so (2013.1, Build901 2013/11/27)

>  <Rbt.Parameter_File>
/home/fstefaniak/progs/rDock//data/scripts/dock_solv.prm

>  <Rbt.Receptor>
4tzx.prm

>  <SCORE>
-38.2574

>  <SCORE.INTER>
-17.9067

>  <SCORE.INTER.CONST>
1

>  <SCORE.INTER.POLAR>
-4.27269

>  <SCORE.INTER.ROT>
2

>  <SCORE.INTER.SOLV>
16.1725

>  <SCORE.INTER.VDW>
-8.01966

>  <SCORE.INTER.norm>
-1.49222

>  <SCORE.INTRA>
0.575816

>  <SCORE.INTRA.DIHEDRAL>
0.796816

>  <SCORE.INTRA.DIHEDRAL.0>
0.752795

>  <SCORE.INTRA.POLAR>
0

>  <SCORE.INTRA.POLAR.0>
0

>  <SCORE.INTRA.REPUL>
0

>  <SCORE.INTRA.REPUL.0>
0

>  <SCORE.INTRA.SOLV>
-0.131413

>  <SCORE.INTRA.SOLV.lig_0>
-16.6204

>  <SCORE.INTRA.VDW>
0.243115

>  <SCORE.INTRA.VDW.0>
-0.42874

>  <SCORE.INTRA.norm>
0.0479847

>  <SCORE.RESTR>
0

>  <SCORE.RESTR.CAVITY>
0

>  <SCORE.RESTR.norm>
0

>  <SCORE.SYSTEM>
-20.9265

>  <SCORE.SYSTEM.CONST>
0

>  <SCORE.SYSTEM.DIHEDRAL>
4.5668

>  <SCORE.SYSTEM.POLAR>
-3.12217

>  <SCORE.SYSTEM.SOLV>
0.222655

>  <SCORE.SYSTEM.VDW>
-5.14029

>  <SCORE.SYSTEM.norm>
-1.74388

>  <SCORE.heavy>
12

>  <SCORE.norm>
-3.18812

$$$$
P105879035
 OpenBabel12072022113D
libRbt.so/2013.1/901 2013/11/27
 15 15  0  0  0  0  0  0  0  0999 V2000
  -29.4303   17.4236  -18.0685 C   0  0  0  0  0  0  0  0  0  0  0  0
  -29.5634   16.2654  -17.0789 C   0  0  0  0  0  0  0  0  0  0  0  0
  -30.1895   16.6348  -15.7212 C   0  0  2  0  0  0  0  0  0  0  0  0
  -31.5639   17.2731  -15.8607 C   0  0  0  0  0  0  0  0  0  0  0  0
  -31.5562   18.6901  -16.9201 S   0  0  0  0  0  0  0  0  0  0  0  0
  -30.7126   19.7072  -16.3291 O   0  0  0  0  0  0  0  0  0  0  0  0
  -32.9351   18.9848  -17.2610 O   0  0  0  0  0  0  0  0  0  0  0  0
  -30.7644   18.0710  -18.3864 C   0  0  0  0  0  0  0  0  0  0  0  0
  -29.2370   17.4790  -14.8427 C   0  0  0  0  0  0  0  0  0  0  0  0
  -28.2039   17.9957  -15.2517 O   0  0  0  0  0  0  0  0  0  0  0  0
  -29.5799   17.5564  -13.5222 N   0  0  0  0  0  0  0  0  0  0  0  0
  -30.3893   15.3971  -14.9967 O   0  0  0  0  0  0  0  0  0  0  0  0
  -29.0925   16.9962  -12.8332 H   0  0  0  0  0  0  0  0  0  0  0  0
  -30.0159   18.4159  -13.2121 H   0  0  0  0  0  0  0  0  0  0  0  0
  -30.8454   14.7802  -15.6007 H   0  0  0  0  0  0  0  0  0  0  0  0
  1  2  1  0  0  0  0
  1  8  1  0  0  0  0
  2  3  1  0  0  0  0
  3  4  1  0  0  0  0
  3  9  1  1  0  0  0
  3 12  1  0  0  0  0
  4  5  1  0  0  0  0
  5  6  2  0  0  0  0
  5  7  2  0  0  0  0
  5  8  1  0  0  0  0
  9 10  2  0  0  0  0
  9 11  1  0  0  0  0
 11 13  1  0  0  0  0
 11 14  1  0  0  0  0
 12 15  1  0  0  0  0
M  END
>  <CHROM.0>
-58.50502286,-59.59299295,-65.09090351,-41.86803981,-55.72515638,-174.53569501
-65.58210402,-54.91039448,-167.87656829

>  <CHROM.1>
11.96576923,-49.52196528,102.26438222,-30.47340014,17.73688186,-16.22887294
-2.65425344,-0.84737333,1.24555805

>  <Name>
P105879035

>  <RI>
0

>  <Rbt.Current_Directory>
/home/fstefaniak/projects/zuza/docking/adenine/4TZX

>  <Rbt.Executable>
rbdock ($Id: //depot/dev/client3/rdock/2013.1/src/exe/rbdock.cxx#4 $)

>  <Rbt.Library>
libRbt.so (2013.1, Build901 2013/11/27)

>  <Rbt.Parameter_File>
/home/fstefaniak/progs/rDock//data/scripts/dock_solv.prm

>  <Rbt.Receptor>
4tzx.prm

>  <SCORE>
-38.2546

>  <SCORE.INTER>
-18.0103

>  <SCORE.INTER.CONST>
1

>  <SCORE.INTER.POLAR>
-4.31209

>  <SCORE.INTER.ROT>
2

>  <SCORE.INTER.SOLV>
16.1651

>  <SCORE.INTER.VDW>
-7.95495

>  <SCORE.INTER.norm>
-1.50086

>  <SCORE.INTRA>
0.51418

>  <SCORE.INTRA.DIHEDRAL>
0.702235

>  <SCORE.INTRA.DIHEDRAL.0>
0.752795

>  <SCORE.INTRA.POLAR>
0

>  <SCORE.INTRA.POLAR.0>
0

>  <SCORE.INTRA.REPUL>
0

>  <SCORE.INTRA.REPUL.0>
0

>  <SCORE.INTRA.SOLV>
-0.13115

>  <SCORE.INTRA.SOLV.lig_0>
-16.6204

>  <SCORE.INTRA.VDW>
0.228638

>  <SCORE.INTRA.VDW.0>
-0.42874

>  <SCORE.INTRA.norm>
0.0428484

>  <SCORE.RESTR>
0

>  <SCORE.RESTR.CAVITY>
0

>  <SCORE.RESTR.norm>
0

>  <SCORE.SYSTEM>
-20.7585

>  <SCORE.SYSTEM.CONST>
0

>  <SCORE.SYSTEM.DIHEDRAL>
4.83495

>  <SCORE.SYSTEM.POLAR>
-3.09406

>  <SCORE.SYSTEM.SOLV>
0.0887697

>  <SCORE.SYSTEM.VDW>
-5.16672

>  <SCORE.SYSTEM.norm>
-1.72988

>  <SCORE.heavy>
12

>  <SCORE.norm>
-3.18789

$$$$
P107007207
 OpenBabel12072022113D
libRbt.so/2013.1/901 2013/11/27
 16 16  0  0  0  0  0  0  0  0999 V2000
  -29.0451   15.5201  -16.6012 C   0  0  0  0  0  0  0  0  0  0  0  0
  -27.9751   14.8235  -15.7650 C   0  0  0  0  0  0  0  0  0  0  0  0
  -26.6447   14.5456  -16.5120 C   0  0  1  0  0  0  0  0  0  0  0  0
  -25.6375   13.7682  -15.6333 C   0  0  0  0  0  0  0  0  0  0  0  0
  -25.8876   12.2644  -15.5516 C   0  0  1  0  0  0  0  0  0  0  0  0
  -26.2233   11.6681  -16.9148 C   0  0  0  0  0  0  0  0  0  0  0  0
  -27.2733   12.4911  -17.6380 C   0  0  0  0  0  0  0  0  0  0  0  0
  -26.8795   13.8515  -17.7424 O   0  0  0  0  0  0  0  0  0  0  0  0
  -24.6302   11.4832  -15.0196 C   0  0  0  0  0  0  0  0  0  0  0  0
  -23.4998   11.7991  -15.4375 O   0  0  0  0  0  0  0  0  0  0  0  0
  -25.0274   10.6205  -14.1613 O   0  5  0  0  0  0  0  0  0  0  0  0
  -27.0271   11.9654  -14.5739 N   0  3  0  0  0  0  0  0  0  0  0  0
  -26.7782   12.1261  -13.5966 H   0  0  0  0  0  0  0  0  0  0  0  0
  -27.9576   12.2904  -14.8293 H   0  0  0  0  0  0  0  0  0  0  0  0
  -27.0372   10.9090  -14.6448 H   0  0  0  0  0  0  0  0  0  0  0  0
  -25.9919   15.8831  -16.9113 C   0  0  0  0  0  0  0  0  0  0  0  0
  1  2  1  0  0  0  0
  3  2  1  0  0  0  0
  3  4  1  0  0  0  0
  3  8  1  0  0  0  0
  3 16  1  6  0  0  0
  4  5  1  0  0  0  0
  5  6  1  0  0  0  0
  5 12  1  0  0  0  0
  5  9  1  1  0  0  0
  6  7  1  0  0  0  0
  7  8  1  0  0  0  0
  9 10  2  0  0  0  0
  9 11  1  0  0  0  0
 12 13  1  0  0  0  0
 12 14  1  0  0  0  0
 12 15  1  0  0  0  0
M  CHG  2  11  -1  12   1
M  END
>  <CHROM.0>
-61.29471596,13.40520456,-71.87786434,-42.29306366,57.67792208,-62.91056059
-170.31556377,-61.45637553,-168.11416968

>  <CHROM.1>
-176.74125448,-70.79164607,-42.27589176,-26.29861143,13.11440710,-16.01929108
2.17074195,0.07052177,-0.50745796

>  <Name>
P107007207

>  <RI>
0

>  <Rbt.Current_Directory>
/home/fstefaniak/projects/zuza/docking/adenine/4TZX

>  <Rbt.Executable>
rbdock ($Id: //depot/dev/client3/rdock/2013.1/src/exe/rbdock.cxx#4 $)

>  <Rbt.Library>
libRbt.so (2013.1, Build901 2013/11/27)

>  <Rbt.Parameter_File>
/home/fstefaniak/progs/rDock//data/scripts/dock_solv.prm

>  <Rbt.Receptor>
4tzx.prm

>  <SCORE>
-33.9207

>  <SCORE.INTER>
-15.5083

>  <SCORE.INTER.CONST>
1

>  <SCORE.INTER.POLAR>
-2.74558

>  <SCORE.INTER.ROT>
2

>  <SCORE.INTER.SOLV>
10.3299

>  <SCORE.INTER.VDW>
-9.5636

>  <SCORE.INTER.norm>
-1.19295

>  <SCORE.INTRA>
-2.30654

>  <SCORE.INTRA.DIHEDRAL>
-2.54334

>  <SCORE.INTRA.DIHEDRAL.0>
3.53771

>  <SCORE.INTRA.POLAR>
0

>  <SCORE.INTRA.POLAR.0>
0

>  <SCORE.INTRA.REPUL>
0

>  <SCORE.INTRA.REPUL.0>
0

>  <SCORE.INTRA.SOLV>
0.195032

>  <SCORE.INTRA.SOLV.lig_0>
-41.78

>  <SCORE.INTRA.VDW>
-1.13239

>  <SCORE.INTRA.VDW.0>
2.76684

>  <SCORE.INTRA.norm>
-0.177426

>  <SCORE.RESTR>
0.203003

>  <SCORE.RESTR.CAVITY>
0.203003

>  <SCORE.RESTR.norm>
0.0156156

>  <SCORE.SYSTEM>
-16.3088

>  <SCORE.SYSTEM.CONST>
0

>  <SCORE.SYSTEM.DIHEDRAL>
11.4821

>  <SCORE.SYSTEM.POLAR>
-3.22602

>  <SCORE.SYSTEM.SOLV>
0.0907842

>  <SCORE.SYSTEM.VDW>
-3.97675

>  <SCORE.SYSTEM.norm>
-1.25452

>  <SCORE.heavy>
13

>  <SCORE.norm>
-2.60929

$$$$
P107007207
 OpenBabel12072022113D
libRbt.so/2013.1/901 2013/11/27
 16 16  0  0  0  0  0  0  0  0999 V2000
  -29.0584   15.3582  -16.5928 C   0  0  0  0  0  0  0  0  0  0  0  0
  -28.0055   14.6346  -15.7578 C   0  0  0  0  0  0  0  0  0  0  0  0
  -26.6975   14.2906  -16.5167 C   0  0  1  0  0  0  0  0  0  0  0  0
  -25.7039   13.5024  -15.6321 C   0  0  0  0  0  0  0  0  0  0  0  0
  -26.0043   12.0109  -15.5057 C   0  0  1  0  0  0  0  0  0  0  0  0
  -26.3819   11.3903  -16.8470 C   0  0  0  0  0  0  0  0  0  0  0  0
  -27.4142   12.2298  -17.5766 C   0  0  0  0  0  0  0  0  0  0  0  0
  -26.9756   13.5724  -17.7241 O   0  0  0  0  0  0  0  0  0  0  0  0
  -24.7662   11.2009  -14.9713 C   0  0  0  0  0  0  0  0  0  0  0  0
  -24.1350   10.4705  -15.7588 O   0  0  0  0  0  0  0  0  0  0  0  0
  -24.6009   11.4901  -13.7352 O   0  5  0  0  0  0  0  0  0  0  0  0
  -27.1378   11.7781  -14.5033 N   0  3  0  0  0  0  0  0  0  0  0  0
  -26.8667   11.9517  -13.5341 H   0  0  0  0  0  0  0  0  0  0  0  0
  -28.0595   12.1324  -14.7516 H   0  0  0  0  0  0  0  0  0  0  0  0
  -27.1890   10.7215  -14.5490 H   0  0  0  0  0  0  0  0  0  0  0  0
  -26.0055   15.5933  -16.9621 C   0  0  0  0  0  0  0  0  0  0  0  0
  1  2  1  0  0  0  0
  3  2  1  0  0  0  0
  3  4  1  0  0  0  0
  3  8  1  0  0  0  0
  3 16  1  6  0  0  0
  4  5  1  0  0  0  0
  5  6  1  0  0  0  0
  5 12  1  0  0  0  0
  5  9  1  1  0  0  0
  6  7  1  0  0  0  0
  7  8  1  0  0  0  0
  9 10  2  0  0  0  0
  9 11  1  0  0  0  0
 12 13  1  0  0  0  0
 12 14  1  0  0  0  0
 12 15  1  0  0  0  0
M  CHG  2  11  -1  12   1
M  END
>  <CHROM.0>
-59.08241266,-62.48758801,63.98967176,-43.69355586,-57.36750922,-60.75643594
57.23585215,-59.66468956,-168.92944912

>  <CHROM.1>
-177.34160062,-71.08285272,-107.08614979,-26.38621975,12.87308800,-15.98956824
-3.10419022,0.97448481,-2.07270202

>  <Name>
P107007207

>  <RI>
0

>  <Rbt.Current_Directory>
/home/fstefaniak/projects/zuza/docking/adenine/4TZX

>  <Rbt.Executable>
rbdock ($Id: //depot/dev/client3/rdock/2013.1/src/exe/rbdock.cxx#4 $)

>  <Rbt.Library>
libRbt.so (2013.1, Build901 2013/11/27)

>  <Rbt.Parameter_File>
/home/fstefaniak/progs/rDock//data/scripts/dock_solv.prm

>  <Rbt.Receptor>
4tzx.prm

>  <SCORE>
-33.6766

>  <SCORE.INTER>
-13.7259

>  <SCORE.INTER.CONST>
1

>  <SCORE.INTER.POLAR>
-1.97844

>  <SCORE.INTER.ROT>
2

>  <SCORE.INTER.SOLV>
10.0498

>  <SCORE.INTER.VDW>
-10.839

>  <SCORE.INTER.norm>
-1.05583

>  <SCORE.INTRA>
-2.02887

>  <SCORE.INTRA.DIHEDRAL>
-2.58147

>  <SCORE.INTRA.DIHEDRAL.0>
3.53771

>  <SCORE.INTRA.POLAR>
0

>  <SCORE.INTRA.POLAR.0>
0

>  <SCORE.INTRA.REPUL>
0

>  <SCORE.INTRA.REPUL.0>
0

>  <SCORE.INTRA.SOLV>
-0.147964

>  <SCORE.INTRA.SOLV.lig_0>
-41.78

>  <SCORE.INTRA.VDW>
-0.66415

>  <SCORE.INTRA.VDW.0>
2.76684

>  <SCORE.INTRA.norm>
-0.156067

>  <SCORE.RESTR>
1.16618

>  <SCORE.RESTR.CAVITY>
1.16618

>  <SCORE.RESTR.norm>
0.0897061

>  <SCORE.SYSTEM>
-19.0881

>  <SCORE.SYSTEM.CONST>
0

>  <SCORE.SYSTEM.DIHEDRAL>
4.03949

>  <SCORE.SYSTEM.POLAR>
-3.03146

>  <SCORE.SYSTEM.SOLV>
0.0785598

>  <SCORE.SYSTEM.VDW>
-3.99322

>  <SCORE.SYSTEM.norm>
-1.46832

>  <SCORE.heavy>
13

>  <SCORE.norm>
-2.59051

$$$$
P107007207
 OpenBabel12072022113D
libRbt.so/2013.1/901 2013/11/27
 16 16  0  0  0  0  0  0  0  0999 V2000
  -24.6332   11.2630  -14.6885 C   0  0  0  0  0  0  0  0  0  0  0  0
  -25.5841   10.9101  -15.8289 C   0  0  0  0  0  0  0  0  0  0  0  0
  -27.0058   11.5167  -15.7015 C   0  0  1  0  0  0  0  0  0  0  0  0
  -26.9654   13.0441  -15.4640 C   0  0  0  0  0  0  0  0  0  0  0  0
  -26.7380   13.8809  -16.7204 C   0  0  1  0  0  0  0  0  0  0  0  0
  -27.5743   13.3835  -17.8950 C   0  0  0  0  0  0  0  0  0  0  0  0
  -27.4675   11.8783  -18.0552 C   0  0  0  0  0  0  0  0  0  0  0  0
  -27.8034   11.2068  -16.8498 O   0  0  0  0  0  0  0  0  0  0  0  0
  -27.1244   15.3904  -16.5043 C   0  0  0  0  0  0  0  0  0  0  0  0
  -26.2692   16.2708  -16.7181 O   0  0  0  0  0  0  0  0  0  0  0  0
  -28.3544   15.4434  -16.1531 O   0  5  0  0  0  0  0  0  0  0  0  0
  -25.2577   13.8658  -17.1107 N   0  3  0  0  0  0  0  0  0  0  0  0
  -24.6547   14.3456  -16.4405 H   0  0  0  0  0  0  0  0  0  0  0  0
  -24.8782   12.9901  -17.4654 H   0  0  0  0  0  0  0  0  0  0  0  0
  -25.2911   14.5418  -17.9250 H   0  0  0  0  0  0  0  0  0  0  0  0
  -27.7338   10.8702  -14.5072 C   0  0  0  0  0  0  0  0  0  0  0  0
  1  2  1  0  0  0  0
  3  2  1  0  0  0  0
  3  4  1  0  0  0  0
  3  8  1  0  0  0  0
  3 16  1  1  0  0  0
  4  5  1  0  0  0  0
  5  6  1  0  0  0  0
  5 12  1  0  0  0  0
  5  9  1  1  0  0  0
  6  7  1  0  0  0  0
  7  8  1  0  0  0  0
  9 10  2  0  0  0  0
  9 11  1  0  0  0  0
 12 13  1  0  0  0  0
 12 14  1  0  0  0  0
 12 15  1  0  0  0  0
M  CHG  2  11  -1  12   1
M  END
>  <CHROM.0>
-60.31261848,-70.61311610,59.86567005,-41.83480542,-58.63184106,-61.50345431
55.71608402,-174.68380060,-167.89807133

>  <CHROM.1>
52.12221479,-67.16108426,123.58992290,-26.78816168,13.01094847,-16.32795073
-1.44072258,-0.47055630,-0.21887641

>  <Name>
P107007207

>  <RI>
0

>  <Rbt.Current_Directory>
/home/fstefaniak/projects/zuza/docking/adenine/4TZX

>  <Rbt.Executable>
rbdock ($Id: //depot/dev/client3/rdock/2013.1/src/exe/rbdock.cxx#4 $)

>  <Rbt.Library>
libRbt.so (2013.1, Build901 2013/11/27)

>  <Rbt.Parameter_File>
/home/fstefaniak/progs/rDock//data/scripts/dock_solv.prm

>  <Rbt.Receptor>
4tzx.prm

>  <SCORE>
-32.0493

>  <SCORE.INTER>
-12.4218

>  <SCORE.INTER.CONST>
1

>  <SCORE.INTER.POLAR>
-2.37091

>  <SCORE.INTER.ROT>
2

>  <SCORE.INTER.SOLV>
17.9799

>  <SCORE.INTER.VDW>
-11.3049

>  <SCORE.INTER.norm>
-0.955527

>  <SCORE.INTRA>
-1.86644

>  <SCORE.INTRA.DIHEDRAL>
-2.45949

>  <SCORE.INTRA.DIHEDRAL.0>
3.53771

>  <SCORE.INTRA.POLAR>
0

>  <SCORE.INTRA.POLAR.0>
0

>  <SCORE.INTRA.REPUL>
0

>  <SCORE.INTRA.REPUL.0>
0

>  <SCORE.INTRA.SOLV>
0.376115

>  <SCORE.INTRA.SOLV.lig_0>
-41.78

>  <SCORE.INTRA.VDW>
-0.824755

>  <SCORE.INTRA.VDW.0>
2.76684

>  <SCORE.INTRA.norm>
-0.143572

>  <SCORE.RESTR>
1.18942

>  <SCORE.RESTR.CAVITY>
1.18942

>  <SCORE.RESTR.norm>
0.0914941

>  <SCORE.SYSTEM>
-18.9505

>  <SCORE.SYSTEM.CONST>
0

>  <SCORE.SYSTEM.DIHEDRAL>
4.99342

>  <SCORE.SYSTEM.POLAR>
-3.04497

>  <SCORE.SYSTEM.SOLV>
-0.0611966

>  <SCORE.SYSTEM.VDW>
-4.12782

>  <SCORE.SYSTEM.norm>
-1.45773

>  <SCORE.heavy>
13

>  <SCORE.norm>
-2.46533

$$$$
P107007208
 OpenBabel12072022113D
libRbt.so/2013.1/901 2013/11/27
 16 16  0  0  0  0  0  0  0  0999 V2000
  -29.0367   15.7217  -15.5623 C   0  0  0  0  0  0  0  0  0  0  0  0
  -29.0728   14.5961  -16.5863 C   0  0  0  0  0  0  0  0  0  0  0  0
  -27.7301   13.8508  -16.8330 C   0  0  2  0  0  0  0  0  0  0  0  0
  -27.4715   12.8443  -15.6895 C   0  0  0  0  0  0  0  0  0  0  0  0
  -26.0000   12.4425  -15.5169 C   0  0  2  0  0  0  0  0  0  0  0  0
  -25.0524   13.6249  -15.6315 C   0  0  0  0  0  0  0  0  0  0  0  0
  -25.3851   14.4685  -16.8492 C   0  0  0  0  0  0  0  0  0  0  0  0
  -26.7425   14.8956  -16.7858 O   0  0  0  0  0  0  0  0  0  0  0  0
  -25.6655   11.2241  -16.4517 C   0  0  0  0  0  0  0  0  0  0  0  0
  -24.3994   11.0576  -16.4742 O   0  0  0  0  0  0  0  0  0  0  0  0
  -26.5840   10.7381  -17.1416 O   0  5  0  0  0  0  0  0  0  0  0  0
  -25.8684   11.8837  -14.0806 N   0  3  0  0  0  0  0  0  0  0  0  0
  -26.1982   12.4815  -13.3252 H   0  0  0  0  0  0  0  0  0  0  0  0
  -26.4591   11.0181  -14.1554 H   0  0  0  0  0  0  0  0  0  0  0  0
  -24.9277   11.5126  -13.9232 H   0  0  0  0  0  0  0  0  0  0  0  0
  -27.7743   13.1978  -18.2224 C   0  0  0  0  0  0  0  0  0  0  0  0
  1  2  1  0  0  0  0
  3  4  1  0  0  0  0
  3  8  1  0  0  0  0
  3 16  1  6  0  0  0
  3  2  1  0  0  0  0
  4  5  1  0  0  0  0
  5  6  1  0  0  0  0
  5  9  1  6  0  0  0
  5 12  1  0  0  0  0
  6  7  1  0  0  0  0
  7  8  1  0  0  0  0
  9 10  2  0  0  0  0
  9 11  1  0  0  0  0
 12 13  1  0  0  0  0
 12 14  1  0  0  0  0
 12 15  1  0  0  0  0
M  CHG  2  11  -1  12   1
M  END
>  <CHROM.0>
-60.34103693,77.87809989,-72.43103591,-42.04346982,-177.06624706,-55.22475896
-169.30642157,-57.90508753,-168.42712470

>  <CHROM.1>
78.40984642,168.63634497,-53.76973616,-26.66371161,13.10179840,-16.27753611
-2.60308835,0.71355405,-2.44133300

>  <Name>
P107007208

>  <RI>
0

>  <Rbt.Current_Directory>
/home/fstefaniak/projects/zuza/docking/adenine/4TZX

>  <Rbt.Executable>
rbdock ($Id: //depot/dev/client3/rdock/2013.1/src/exe/rbdock.cxx#4 $)

>  <Rbt.Library>
libRbt.so (2013.1, Build901 2013/11/27)

>  <Rbt.Parameter_File>
/home/fstefaniak/progs/rDock//data/scripts/dock_solv.prm

>  <Rbt.Receptor>
4tzx.prm

>  <SCORE>
-34.941

>  <SCORE.INTER>
-17.5376

>  <SCORE.INTER.CONST>
1

>  <SCORE.INTER.POLAR>
-2.33861

>  <SCORE.INTER.ROT>
2

>  <SCORE.INTER.SOLV>
10.3584

>  <SCORE.INTER.VDW>
-12.2825

>  <SCORE.INTER.norm>
-1.34904

>  <SCORE.INTRA>
-0.180459

>  <SCORE.INTRA.DIHEDRAL>
0.672501

>  <SCORE.INTRA.DIHEDRAL.0>
1.91281

>  <SCORE.INTRA.POLAR>
0

>  <SCORE.INTRA.POLAR.0>
0

>  <SCORE.INTRA.REPUL>
0

>  <SCORE.INTRA.REPUL.0>
0

>  <SCORE.INTRA.SOLV>
-0.529891

>  <SCORE.INTRA.SOLV.lig_0>
-41.8455

>  <SCORE.INTRA.VDW>
-0.251764

>  <SCORE.INTRA.VDW.0>
2.55128

>  <SCORE.INTRA.norm>
-0.0138815

>  <SCORE.RESTR>
1.49348

>  <SCORE.RESTR.CAVITY>
1.49348

>  <SCORE.RESTR.norm>
0.114883

>  <SCORE.SYSTEM>
-18.7165

>  <SCORE.SYSTEM.CONST>
0

>  <SCORE.SYSTEM.DIHEDRAL>
6.9362

>  <SCORE.SYSTEM.POLAR>
-3.0618

>  <SCORE.SYSTEM.SOLV>
-0.00839663

>  <SCORE.SYSTEM.VDW>
-4.5809

>  <SCORE.SYSTEM.norm>
-1.43973

>  <SCORE.heavy>
13

>  <SCORE.norm>
-2.68777

$$$$
P107007208
 OpenBabel12072022113D
libRbt.so/2013.1/901 2013/11/27
 16 16  0  0  0  0  0  0  0  0999 V2000
  -28.9650   15.6504  -15.5963 C   0  0  0  0  0  0  0  0  0  0  0  0
  -29.0127   14.5385  -16.6347 C   0  0  0  0  0  0  0  0  0  0  0  0
  -27.6890   13.7534  -16.8595 C   0  0  2  0  0  0  0  0  0  0  0  0
  -27.5046   12.7052  -15.7394 C   0  0  0  0  0  0  0  0  0  0  0  0
  -26.0548   12.2463  -15.5305 C   0  0  2  0  0  0  0  0  0  0  0  0
  -25.0633   13.3970  -15.5774 C   0  0  0  0  0  0  0  0  0  0  0  0
  -25.3249   14.2874  -16.7791 C   0  0  0  0  0  0  0  0  0  0  0  0
  -26.6680   14.7605  -16.7476 O   0  0  0  0  0  0  0  0  0  0  0  0
  -25.7308   11.0447  -16.4906 C   0  0  0  0  0  0  0  0  0  0  0  0
  -24.4671   10.8602  -16.5075 O   0  0  0  0  0  0  0  0  0  0  0  0
  -26.6510   10.5883  -17.1982 O   0  5  0  0  0  0  0  0  0  0  0  0
  -25.9917   11.6411  -14.1084 N   0  3  0  0  0  0  0  0  0  0  0  0
  -26.4944   10.7682  -13.9601 H   0  0  0  0  0  0  0  0  0  0  0  0
  -24.9562   11.4964  -14.0060 H   0  0  0  0  0  0  0  0  0  0  0  0
  -26.1995   12.3539  -13.4040 H   0  0  0  0  0  0  0  0  0  0  0  0
  -27.7083   13.1435  -18.2690 C   0  0  0  0  0  0  0  0  0  0  0  0
  1  2  1  0  0  0  0
  3  4  1  0  0  0  0
  3  8  1  0  0  0  0
  3 16  1  6  0  0  0
  3  2  1  0  0  0  0
  4  5  1  0  0  0  0
  5  6  1  0  0  0  0
  5  9  1  6  0  0  0
  5 12  1  0  0  0  0
  6  7  1  0  0  0  0
  7  8  1  0  0  0  0
  9 10  2  0  0  0  0
  9 11  1  0  0  0  0
 12 13  1  0  0  0  0
 12 14  1  0  0  0  0
 12 15  1  0  0  0  0
M  CHG  2  11  -1  12   1
M  END
>  <CHROM.0>
-63.95687189,74.50476501,63.07318514,50.12712771,-58.73085348,-62.00751256
55.41311587,-178.30279352,-169.19043911

>  <CHROM.1>
79.61099403,166.68747767,68.36016679,-26.66673447,12.95450513,-16.29343189
-2.58054989,0.75222363,-2.43922419

>  <Name>
P107007208

>  <RI>
0

>  <Rbt.Current_Directory>
/home/fstefaniak/projects/zuza/docking/adenine/4TZX

>  <Rbt.Executable>
rbdock ($Id: //depot/dev/client3/rdock/2013.1/src/exe/rbdock.cxx#4 $)

>  <Rbt.Library>
libRbt.so (2013.1, Build901 2013/11/27)

>  <Rbt.Parameter_File>
/home/fstefaniak/progs/rDock//data/scripts/dock_solv.prm

>  <Rbt.Receptor>
4tzx.prm

>  <SCORE>
-30.5698

>  <SCORE.INTER>
-18.0772

>  <SCORE.INTER.CONST>
1

>  <SCORE.INTER.POLAR>
-2.25829

>  <SCORE.INTER.ROT>
2

>  <SCORE.INTER.SOLV>
9.57289

>  <SCORE.INTER.VDW>
-12.6481

>  <SCORE.INTER.norm>
-1.39055

>  <SCORE.INTRA>
0.129265

>  <SCORE.INTRA.DIHEDRAL>
0.903174

>  <SCORE.INTRA.DIHEDRAL.0>
1.91281

>  <SCORE.INTRA.POLAR>
0

>  <SCORE.INTRA.POLAR.0>
0

>  <SCORE.INTRA.REPUL>
0

>  <SCORE.INTRA.REPUL.0>
0

>  <SCORE.INTRA.SOLV>
-0.621203

>  <SCORE.INTRA.SOLV.lig_0>
-41.8455

>  <SCORE.INTRA.VDW>
-0.0117201

>  <SCORE.INTRA.VDW.0>
2.55128

>  <SCORE.INTRA.norm>
0.00994349

>  <SCORE.RESTR>
1.91251

>  <SCORE.RESTR.CAVITY>
1.91251

>  <SCORE.RESTR.norm>
0.147116

>  <SCORE.SYSTEM>
-14.5344

>  <SCORE.SYSTEM.CONST>
0

>  <SCORE.SYSTEM.DIHEDRAL>
4.313

>  <SCORE.SYSTEM.POLAR>
-2.42819

>  <SCORE.SYSTEM.SOLV>
-0.117498

>  <SCORE.SYSTEM.VDW>
-2.99415

>  <SCORE.SYSTEM.norm>
-1.11803

>  <SCORE.heavy>
13

>  <SCORE.norm>
-2.35153

$$$$
P107007208
 OpenBabel12072022113D
libRbt.so/2013.1/901 2013/11/27
 16 16  0  0  0  0  0  0  0  0999 V2000
  -26.3244   15.5145  -16.2459 C   0  0  0  0  0  0  0  0  0  0  0  0
  -25.3137   14.5251  -16.8085 C   0  0  0  0  0  0  0  0  0  0  0  0
  -25.4341   13.0595  -16.3016 C   0  0  2  0  0  0  0  0  0  0  0  0
  -25.1288   13.0016  -14.7881 C   0  0  0  0  0  0  0  0  0  0  0  0
  -24.6982   11.6190  -14.2788 C   0  0  2  0  0  0  0  0  0  0  0  0
  -23.7187   10.9291  -15.2136 C   0  0  0  0  0  0  0  0  0  0  0  0
  -24.2016   11.0005  -16.6513 C   0  0  0  0  0  0  0  0  0  0  0  0
  -24.4072   12.3593  -17.0258 O   0  0  0  0  0  0  0  0  0  0  0  0
  -25.9655   10.7724  -13.8945 C   0  0  0  0  0  0  0  0  0  0  0  0
  -25.5867    9.6139  -13.5129 O   0  0  0  0  0  0  0  0  0  0  0  0
  -27.0911   11.2347  -14.1685 O   0  5  0  0  0  0  0  0  0  0  0  0
  -23.9648   11.8593  -12.9383 N   0  3  0  0  0  0  0  0  0  0  0  0
  -23.5252   11.0492  -12.5058 H   0  0  0  0  0  0  0  0  0  0  0  0
  -23.2415   12.5603  -13.2371 H   0  0  0  0  0  0  0  0  0  0  0  0
  -24.5558   12.3923  -12.2948 H   0  0  0  0  0  0  0  0  0  0  0  0
  -26.8266   12.5229  -16.6644 C   0  0  0  0  0  0  0  0  0  0  0  0
  1  2  1  0  0  0  0
  3  4  1  0  0  0  0
  3  8  1  0  0  0  0
  3 16  1  6  0  0  0
  3  2  1  0  0  0  0
  4  5  1  0  0  0  0
  5  6  1  0  0  0  0
  5  9  1  1  0  0  0
  5 12  1  0  0  0  0
  6  7  1  0  0  0  0
  7  8  1  0  0  0  0
  9 10  2  0  0  0  0
  9 11  1  0  0  0  0
 12 13  1  0  0  0  0
 12 14  1  0  0  0  0
 12 15  1  0  0  0  0
M  CHG  2  11  -1  12   1
M  END
>  <CHROM.0>
-59.77684420,-175.96228164,-62.68544188,-42.93830367,-59.02262481,-57.50676135
-66.93738977,-61.10303568,-168.81901129

>  <CHROM.1>
-65.06579134,178.04377982,-173.90086469,-25.28171717,12.14897416,-15.24258545
1.73416642,0.59902590,-0.77425576

>  <Name>
P107007208

>  <RI>
0

>  <Rbt.Current_Directory>
/home/fstefaniak/projects/zuza/docking/adenine/4TZX

>  <Rbt.Executable>
rbdock ($Id: //depot/dev/client3/rdock/2013.1/src/exe/rbdock.cxx#4 $)

>  <Rbt.Library>
libRbt.so (2013.1, Build901 2013/11/27)

>  <Rbt.Parameter_File>
/home/fstefaniak/progs/rDock//data/scripts/dock_solv.prm

>  <Rbt.Receptor>
4tzx.prm

>  <SCORE>
-30.0611

>  <SCORE.INTER>
-10.4663

>  <SCORE.INTER.CONST>
1

>  <SCORE.INTER.POLAR>
-1.48047

>  <SCORE.INTER.ROT>
2

>  <SCORE.INTER.SOLV>
11.5554

>  <SCORE.INTER.VDW>
-10.8277

>  <SCORE.INTER.norm>
-0.805097

>  <SCORE.INTRA>
0.114233

>  <SCORE.INTRA.DIHEDRAL>
-1.01398

>  <SCORE.INTRA.DIHEDRAL.0>
1.91281

>  <SCORE.INTRA.POLAR>
0

>  <SCORE.INTRA.POLAR.0>
0

>  <SCORE.INTRA.REPUL>
0

>  <SCORE.INTRA.REPUL.0>
0

>  <SCORE.INTRA.SOLV>
-0.727609

>  <SCORE.INTRA.SOLV.lig_0>
-41.8455

>  <SCORE.INTRA.VDW>
0.985025

>  <SCORE.INTRA.VDW.0>
2.55128

>  <SCORE.INTRA.norm>
0.00878715

>  <SCORE.RESTR>
1.27978

>  <SCORE.RESTR.CAVITY>
1.27978

>  <SCORE.RESTR.norm>
0.098445

>  <SCORE.SYSTEM>
-20.9889

>  <SCORE.SYSTEM.CONST>
0

>  <SCORE.SYSTEM.DIHEDRAL>
4.34767

>  <SCORE.SYSTEM.POLAR>
-3.06328

>  <SCORE.SYSTEM.SOLV>
0.166639

>  <SCORE.SYSTEM.VDW>
-5.28641

>  <SCORE.SYSTEM.norm>
-1.61453

>  <SCORE.heavy>
13

>  <SCORE.norm>
-2.31239

$$$$
P107221164
 OpenBabel12072022113D
libRbt.so/2013.1/901 2013/11/27
 14 14  0  0  0  0  0  0  0  0999 V2000
  -25.5208   16.3892  -16.2739 C   0  0  0  0  0  0  0  0  0  0  0  0
  -25.6698   14.8800  -16.4486 C   0  0  2  0  0  0  0  0  0  0  0  0
  -27.1454   14.5124  -16.7302 C   0  0  0  0  0  0  0  0  0  0  0  0
  -27.2788   13.0583  -16.8199 N   0  0  0  0  0  0  0  0  0  0  0  0
  -26.8572   12.3747  -15.5988 C   0  0  0  0  0  0  0  0  0  0  0  0
  -25.3917   12.7412  -15.2458 C   0  0  2  0  0  0  0  0  0  0  0  0
  -25.1458   14.2046  -15.2406 N   0  0  0  0  0  0  0  0  0  0  0  0
  -24.3972   12.0148  -16.1584 C   0  0  0  0  0  0  0  0  0  0  0  0
  -27.4677   12.3264  -17.9611 C   0  0  0  0  0  0  0  0  0  0  0  0
  -27.5077   11.1012  -18.0043 O   0  0  0  0  0  0  0  0  0  0  0  0
  -27.6148   13.0260  -19.1119 N   0  0  0  0  0  0  0  0  0  0  0  0
  -24.1460   14.3841  -15.1527 H   0  0  0  0  0  0  0  0  0  0  0  0
  -28.5160   12.9879  -19.5599 H   0  0  0  0  0  0  0  0  0  0  0  0
  -27.2455   13.9653  -19.0298 H   0  0  0  0  0  0  0  0  0  0  0  0
  2  3  1  0  0  0  0
  2  7  1  0  0  0  0
  2  1  1  1  0  0  0
  3  4  1  0  0  0  0
  4  5  1  0  0  0  0
  4  9  1  0  0  0  0
  5  6  1  0  0  0  0
  6  7  1  0  0  0  0
  6  8  1  6  0  0  0
  7 12  1  0  0  0  0
  9 10  2  0  0  0  0
  9 11  1  0  0  0  0
 11 13  1  0  0  0  0
 11 14  1  0  0  0  0
M  END
>  <CHROM.0>
-59.60079757,-178.72330722,-69.13075552,-42.97510552,-55.87103151,56.71028143
-68.24258469,-56.86862493,-168.77075951

>  <CHROM.1>
-112.98761371,-26.36135633,13.32840930,-16.71863699,0.69681113,-0.83628414
-0.03559126

>  <Name>
P107221164

>  <RI>
0

>  <Rbt.Current_Directory>
/home/fstefaniak/projects/zuza/docking/adenine/4TZX

>  <Rbt.Executable>
rbdock ($Id: //depot/dev/client3/rdock/2013.1/src/exe/rbdock.cxx#4 $)

>  <Rbt.Library>
libRbt.so (2013.1, Build901 2013/11/27)

>  <Rbt.Parameter_File>
/home/fstefaniak/progs/rDock//data/scripts/dock_solv.prm

>  <Rbt.Receptor>
4tzx.prm

>  <SCORE>
-49.3569

>  <SCORE.INTER>
-30.6769

>  <SCORE.INTER.CONST>
1

>  <SCORE.INTER.POLAR>
-3.7323

>  <SCORE.INTER.ROT>
1

>  <SCORE.INTER.SOLV>
9.48963

>  <SCORE.INTER.VDW>
-15.4401

>  <SCORE.INTER.norm>
-2.78881

>  <SCORE.INTRA>
0.943133

>  <SCORE.INTRA.DIHEDRAL>
-0.000173154

>  <SCORE.INTRA.DIHEDRAL.0>
0.478811

>  <SCORE.INTRA.POLAR>
0

>  <SCORE.INTRA.POLAR.0>
0

>  <SCORE.INTRA.REPUL>
0

>  <SCORE.INTRA.REPUL.0>
0

>  <SCORE.INTRA.SOLV>
0.00784113

>  <SCORE.INTRA.SOLV.lig_0>
-13.7031

>  <SCORE.INTRA.VDW>
0.939299

>  <SCORE.INTRA.VDW.0>
-0.125422

>  <SCORE.INTRA.norm>
0.0857394

>  <SCORE.RESTR>
0.298762

>  <SCORE.RESTR.CAVITY>
0.298762

>  <SCORE.RESTR.norm>
0.0271602

>  <SCORE.SYSTEM>
-19.9219

>  <SCORE.SYSTEM.CONST>
0

>  <SCORE.SYSTEM.DIHEDRAL>
4.83822

>  <SCORE.SYSTEM.POLAR>
-3.05783

>  <SCORE.SYSTEM.SOLV>
0.0243335

>  <SCORE.SYSTEM.VDW>
-4.70936

>  <SCORE.SYSTEM.norm>
-1.81108

>  <SCORE.heavy>
11

>  <SCORE.norm>
-4.48699

$$$$
P107221164
 OpenBabel12072022113D
libRbt.so/2013.1/901 2013/11/27
 14 14  0  0  0  0  0  0  0  0999 V2000
  -25.4621   16.4138  -16.2891 C   0  0  0  0  0  0  0  0  0  0  0  0
  -25.6479   14.9101  -16.4754 C   0  0  2  0  0  0  0  0  0  0  0  0
  -27.1301   14.5821  -16.7714 C   0  0  0  0  0  0  0  0  0  0  0  0
  -27.2997   13.1325  -16.8722 N   0  0  0  0  0  0  0  0  0  0  0  0
  -26.9056   12.4302  -15.6525 C   0  0  0  0  0  0  0  0  0  0  0  0
  -25.4342   12.7569  -15.2853 C   0  0  2  0  0  0  0  0  0  0  0  0
  -25.1512   14.2134  -15.2680 N   0  0  0  0  0  0  0  0  0  0  0  0
  -24.4510   12.0115  -16.1949 C   0  0  0  0  0  0  0  0  0  0  0  0
  -27.4978   12.4133  -18.0199 C   0  0  0  0  0  0  0  0  0  0  0  0
  -27.5686   11.1898  -18.0719 O   0  0  0  0  0  0  0  0  0  0  0  0
  -27.6176   13.1242  -19.1670 N   0  0  0  0  0  0  0  0  0  0  0  0
  -24.1479   14.3669  -15.1709 H   0  0  0  0  0  0  0  0  0  0  0  0
  -28.4605   12.9923  -19.7023 H   0  0  0  0  0  0  0  0  0  0  0  0
  -27.3746   14.0979  -19.0321 H   0  0  0  0  0  0  0  0  0  0  0  0
  2  3  1  0  0  0  0
  2  7  1  0  0  0  0
  2  1  1  1  0  0  0
  3  4  1  0  0  0  0
  4  5  1  0  0  0  0
  4  9  1  0  0  0  0
  5  6  1  0  0  0  0
  6  7  1  0  0  0  0
  6  8  1  6  0  0  0
  7 12  1  0  0  0  0
  9 10  2  0  0  0  0
  9 11  1  0  0  0  0
 11 13  1  0  0  0  0
 11 14  1  0  0  0  0
M  END
>  <CHROM.0>
-60.58535082,-177.75539189,-65.19620743,50.43882605,-176.95690216,-60.87092154
-67.90712056,-59.36770247,-169.20693903

>  <CHROM.1>
-122.85327975,-26.37711097,13.37797367,-16.76195938,0.65817111,-0.84328548
-0.05681935

>  <Name>
P107221164

>  <RI>
0

>  <Rbt.Current_Directory>
/home/fstefaniak/projects/zuza/docking/adenine/4TZX

>  <Rbt.Executable>
rbdock ($Id: //depot/dev/client3/rdock/2013.1/src/exe/rbdock.cxx#4 $)

>  <Rbt.Library>
libRbt.so (2013.1, Build901 2013/11/27)

>  <Rbt.Parameter_File>
/home/fstefaniak/progs/rDock//data/scripts/dock_solv.prm

>  <Rbt.Receptor>
4tzx.prm

>  <SCORE>
-47.4248

>  <SCORE.INTER>
-30.7481

>  <SCORE.INTER.CONST>
1

>  <SCORE.INTER.POLAR>
-3.77137

>  <SCORE.INTER.ROT>
1

>  <SCORE.INTER.SOLV>
9.78677

>  <SCORE.INTER.VDW>
-15.4565

>  <SCORE.INTER.norm>
-2.79529

>  <SCORE.INTRA>
1.30598

>  <SCORE.INTRA.DIHEDRAL>
0.000774532

>  <SCORE.INTRA.DIHEDRAL.0>
0.478811

>  <SCORE.INTRA.POLAR>
0

>  <SCORE.INTRA.POLAR.0>
0

>  <SCORE.INTRA.REPUL>
0

>  <SCORE.INTRA.REPUL.0>
0

>  <SCORE.INTRA.SOLV>
0.00752466

>  <SCORE.INTRA.SOLV.lig_0>
-13.7031

>  <SCORE.INTRA.VDW>
1.30183

>  <SCORE.INTRA.VDW.0>
-0.125422

>  <SCORE.INTRA.norm>
0.118726

>  <SCORE.RESTR>
0.204057

>  <SCORE.RESTR.CAVITY>
0.204057

>  <SCORE.RESTR.norm>
0.0185506

>  <SCORE.SYSTEM>
-18.1867

>  <SCORE.SYSTEM.CONST>
0

>  <SCORE.SYSTEM.DIHEDRAL>
3.5432

>  <SCORE.SYSTEM.POLAR>
-2.46805

>  <SCORE.SYSTEM.SOLV>
-0.08565

>  <SCORE.SYSTEM.VDW>
-5.05013

>  <SCORE.SYSTEM.norm>
-1.65333

>  <SCORE.heavy>
11

>  <SCORE.norm>
-4.31134

$$$$
P107221164
 OpenBabel12072022113D
libRbt.so/2013.1/901 2013/11/27
 14 14  0  0  0  0  0  0  0  0999 V2000
  -31.2555   18.3296  -13.1786 C   0  0  0  0  0  0  0  0  0  0  0  0
  -30.4936   17.9785  -14.4539 C   0  0  2  0  0  0  0  0  0  0  0  0
  -31.4563   17.9374  -15.6637 C   0  0  0  0  0  0  0  0  0  0  0  0
  -30.7213   17.5268  -16.8601 N   0  0  0  0  0  0  0  0  0  0  0  0
  -30.0999   16.2114  -16.7192 C   0  0  0  0  0  0  0  0  0  0  0  0
  -29.1515   16.1840  -15.4918 C   0  0  2  0  0  0  0  0  0  0  0  0
  -29.7924   16.6909  -14.2532 N   0  0  0  0  0  0  0  0  0  0  0  0
  -27.8402   16.9235  -15.7805 C   0  0  0  0  0  0  0  0  0  0  0  0
  -30.3480   18.3310  -17.9029 C   0  0  0  0  0  0  0  0  0  0  0  0
  -29.6729   17.9637  -18.8589 O   0  0  0  0  0  0  0  0  0  0  0  0
  -30.7619   19.6200  -17.8520 N   0  0  0  0  0  0  0  0  0  0  0  0
  -29.0906   16.7922  -13.5205 H   0  0  0  0  0  0  0  0  0  0  0  0
  -31.7317   19.7821  -17.6335 H   0  0  0  0  0  0  0  0  0  0  0  0
  -30.1264   20.1973  -17.3151 H   0  0  0  0  0  0  0  0  0  0  0  0
  2  3  1  0  0  0  0
  2  7  1  0  0  0  0
  2  1  1  1  0  0  0
  3  4  1  0  0  0  0
  4  5  1  0  0  0  0
  4  9  1  0  0  0  0
  5  6  1  0  0  0  0
  6  7  1  0  0  0  0
  6  8  1  6  0  0  0
  7 12  1  0  0  0  0
  9 10  2  0  0  0  0
  9 11  1  0  0  0  0
 11 13  1  0  0  0  0
 11 14  1  0  0  0  0
M  END
>  <CHROM.0>
-59.31823666,-173.75660995,-63.45564080,-43.54669377,-175.55910053,-62.76395890
-67.94853971,-174.43705258,-168.00326944

>  <CHROM.1>
-47.60921796,-30.13602022,17.63615706,-16.09857694,1.59724427,-0.74992658
1.81849234

>  <Name>
P107221164

>  <RI>
0

>  <Rbt.Current_Directory>
/home/fstefaniak/projects/zuza/docking/adenine/4TZX

>  <Rbt.Executable>
rbdock ($Id: //depot/dev/client3/rdock/2013.1/src/exe/rbdock.cxx#4 $)

>  <Rbt.Library>
libRbt.so (2013.1, Build901 2013/11/27)

>  <Rbt.Parameter_File>
/home/fstefaniak/progs/rDock//data/scripts/dock_solv.prm

>  <Rbt.Receptor>
4tzx.prm

>  <SCORE>
-40.5275

>  <SCORE.INTER>
-19.2274

>  <SCORE.INTER.CONST>
1

>  <SCORE.INTER.POLAR>
-3.90898

>  <SCORE.INTER.ROT>
1

>  <SCORE.INTER.SOLV>
14.4331

>  <SCORE.INTER.VDW>
-8.86606

>  <SCORE.INTER.norm>
-1.74795

>  <SCORE.INTRA>
-0.179416

>  <SCORE.INTRA.DIHEDRAL>
0.00292985

>  <SCORE.INTRA.DIHEDRAL.0>
0.478811

>  <SCORE.INTRA.POLAR>
0

>  <SCORE.INTRA.POLAR.0>
0

>  <SCORE.INTRA.REPUL>
0

>  <SCORE.INTRA.REPUL.0>
0

>  <SCORE.INTRA.SOLV>
-0.000772777

>  <SCORE.INTRA.SOLV.lig_0>
-13.7031

>  <SCORE.INTRA.VDW>
-0.180495

>  <SCORE.INTRA.VDW.0>
-0.125422

>  <SCORE.INTRA.norm>
-0.0163106

>  <SCORE.RESTR>
0

>  <SCORE.RESTR.CAVITY>
0

>  <SCORE.RESTR.norm>
0

>  <SCORE.SYSTEM>
-21.1206

>  <SCORE.SYSTEM.CONST>
0

>  <SCORE.SYSTEM.DIHEDRAL>
4.76559

>  <SCORE.SYSTEM.POLAR>
-3.04692

>  <SCORE.SYSTEM.SOLV>
-0.166356

>  <SCORE.SYSTEM.VDW>
-5.45711

>  <SCORE.SYSTEM.norm>
-1.92006

>  <SCORE.heavy>
11

>  <SCORE.norm>
-3.68432

$$$$
P107223365
 OpenBabel12072022113D
libRbt.so/2013.1/901 2013/11/27
 15 15  0  0  0  0  0  0  0  0999 V2000
  -27.4344   14.7853  -16.0964 C   0  0  0  0  0  0  0  0  0  0  0  0
  -28.8205   14.4333  -16.6288 C   0  0  0  0  0  0  0  0  0  0  0  0
  -29.9046   15.3135  -16.0023 C   0  0  0  0  0  0  0  0  0  0  0  0
  -29.6163   16.8210  -16.1528 C   0  0  0  0  0  0  0  0  0  0  0  0
  -28.1991   17.1509  -15.6416 C   0  0  0  0  0  0  0  0  0  0  0  0
  -27.1180   16.2680  -16.2691 C   0  0  0  0  0  0  0  0  0  0  0  0
  -30.6800   17.6566  -15.3797 C   0  0  0  0  0  0  0  0  0  0  0  0
  -31.3437   18.5525  -15.9099 O   0  0  0  0  0  0  0  0  0  0  0  0
  -30.8465   17.3505  -14.0505 N   0  0  0  0  0  0  0  0  0  0  0  0
  -29.6985   17.4925  -13.2368 O   0  0  0  0  0  0  0  0  0  0  0  0
  -29.6995   17.1788  -17.5931 N   0  0  0  0  0  0  0  0  0  0  0  0
  -31.7401   17.3540  -13.5722 H   0  0  0  0  0  0  0  0  0  0  0  0
  -29.6403   18.4671  -13.1214 H   0  0  0  0  0  0  0  0  0  0  0  0
  -29.5700   18.1907  -17.6760 H   0  0  0  0  0  0  0  0  0  0  0  0
  -30.6668   17.0404  -17.8977 H   0  0  0  0  0  0  0  0  0  0  0  0
  1  2  1  0  0  0  0
  1  6  1  0  0  0  0
  2  3  1  0  0  0  0
  3  4  1  0  0  0  0
  4  5  1  0  0  0  0
  4  7  1  0  0  0  0
  4 11  1  0  0  0  0
  5  6  1  0  0  0  0
  7  8  2  0  0  0  0
  7  9  1  0  0  0  0
  9 10  1  0  0  0  0
  9 12  1  0  0  0  0
 10 13  1  0  0  0  0
 11 14  1  0  0  0  0
 11 15  1  0  0  0  0
M  END
>  <CHROM.0>
-177.28016924,-177.01239436,-66.37107690,-42.53806229,-175.90605658,-59.49875526
-64.74898511,-58.00861695,-168.99992688

>  <CHROM.1>
-125.91078185,176.21091277,59.61527695,76.29798132,-29.43081651,16.68439982
-15.68991250,-0.53565344,-0.68941725,1.39583484

>  <Name>
P107223365

>  <RI>
0

>  <Rbt.Current_Directory>
/home/fstefaniak/projects/zuza/docking/adenine/4TZX

>  <Rbt.Executable>
rbdock ($Id: //depot/dev/client3/rdock/2013.1/src/exe/rbdock.cxx#4 $)

>  <Rbt.Library>
libRbt.so (2013.1, Build901 2013/11/27)

>  <Rbt.Parameter_File>
/home/fstefaniak/progs/rDock//data/scripts/dock_solv.prm

>  <Rbt.Receptor>
4tzx.prm

>  <SCORE>
-47.316

>  <SCORE.INTER>
-28.6751

>  <SCORE.INTER.CONST>
1

>  <SCORE.INTER.POLAR>
-4.70081

>  <SCORE.INTER.ROT>
3

>  <SCORE.INTER.SOLV>
13.4994

>  <SCORE.INTER.VDW>
-13.5471

>  <SCORE.INTER.norm>
-2.60682

>  <SCORE.INTRA>
-0.628273

>  <SCORE.INTRA.DIHEDRAL>
-0.181717

>  <SCORE.INTRA.DIHEDRAL.0>
1.25103

>  <SCORE.INTRA.POLAR>
0

>  <SCORE.INTRA.POLAR.0>
0

>  <SCORE.INTRA.REPUL>
0

>  <SCORE.INTRA.REPUL.0>
0

>  <SCORE.INTRA.SOLV>
0.702308

>  <SCORE.INTRA.SOLV.lig_0>
-16.9138

>  <SCORE.INTRA.VDW>
-0.888569

>  <SCORE.INTRA.VDW.0>
-0.037037

>  <SCORE.INTRA.norm>
-0.0571157

>  <SCORE.RESTR>
0

>  <SCORE.RESTR.CAVITY>
0

>  <SCORE.RESTR.norm>
0

>  <SCORE.SYSTEM>
-18.0126

>  <SCORE.SYSTEM.CONST>
0

>  <SCORE.SYSTEM.DIHEDRAL>
4.47913

>  <SCORE.SYSTEM.POLAR>
-2.48223

>  <SCORE.SYSTEM.SOLV>
-0.0192502

>  <SCORE.SYSTEM.VDW>
-5.22095

>  <SCORE.SYSTEM.norm>
-1.63751

>  <SCORE.heavy>
11

>  <SCORE.norm>
-4.30145

$$$$
P107223365
 OpenBabel12072022113D
libRbt.so/2013.1/901 2013/11/27
 15 15  0  0  0  0  0  0  0  0999 V2000
  -27.5455   14.7946  -16.1645 C   0  0  0  0  0  0  0  0  0  0  0  0
  -28.9872   14.5465  -16.5988 C   0  0  0  0  0  0  0  0  0  0  0  0
  -29.9671   15.4405  -15.8352 C   0  0  0  0  0  0  0  0  0  0  0  0
  -29.6086   16.9377  -15.9232 C   0  0  0  0  0  0  0  0  0  0  0  0
  -28.1390   17.1636  -15.5137 C   0  0  0  0  0  0  0  0  0  0  0  0
  -27.1623   16.2672  -16.2782 C   0  0  0  0  0  0  0  0  0  0  0  0
  -30.5591   17.7772  -15.0179 C   0  0  0  0  0  0  0  0  0  0  0  0
  -31.3735   18.5874  -15.4703 O   0  0  0  0  0  0  0  0  0  0  0  0
  -30.4443   17.5769  -13.6634 N   0  0  0  0  0  0  0  0  0  0  0  0
  -29.2015   17.9340  -13.0905 O   0  0  0  0  0  0  0  0  0  0  0  0
  -29.7869   17.3869  -17.3288 N   0  0  0  0  0  0  0  0  0  0  0  0
  -31.2312   17.5141  -13.0276 H   0  0  0  0  0  0  0  0  0  0  0  0
  -29.0168   17.1736  -12.4953 H   0  0  0  0  0  0  0  0  0  0  0  0
  -30.7672   17.2432  -17.5854 H   0  0  0  0  0  0  0  0  0  0  0  0
  -29.2871   16.7315  -17.9358 H   0  0  0  0  0  0  0  0  0  0  0  0
  1  2  1  0  0  0  0
  1  6  1  0  0  0  0
  2  3  1  0  0  0  0
  3  4  1  0  0  0  0
  4  5  1  0  0  0  0
  4  7  1  0  0  0  0
  4 11  1  0  0  0  0
  5  6  1  0  0  0  0
  7  8  2  0  0  0  0
  7  9  1  0  0  0  0
  9 10  1  0  0  0  0
  9 12  1  0  0  0  0
 10 13  1  0  0  0  0
 11 14  1  0  0  0  0
 11 15  1  0  0  0  0
M  END
>  <CHROM.0>
-55.87325617,-62.83800416,-54.01212080,-42.27603870,-56.07444374,-59.71976951
-65.45274284,61.17984668,-167.84096952

>  <CHROM.1>
-113.63697046,60.51242034,63.66695520,-135.93254128,-29.36631781,16.79700072
-15.49833310,-0.82867749,-0.58914958,1.12904313

>  <Name>
P107223365

>  <RI>
0

>  <Rbt.Current_Directory>
/home/fstefaniak/projects/zuza/docking/adenine/4TZX

>  <Rbt.Executable>
rbdock ($Id: //depot/dev/client3/rdock/2013.1/src/exe/rbdock.cxx#4 $)

>  <Rbt.Library>
libRbt.so (2013.1, Build901 2013/11/27)

>  <Rbt.Parameter_File>
/home/fstefaniak/progs/rDock//data/scripts/dock_solv.prm

>  <Rbt.Receptor>
4tzx.prm

>  <SCORE>
-45.1963

>  <SCORE.INTER>
-25.5177

>  <SCORE.INTER.CONST>
1

>  <SCORE.INTER.POLAR>
-4.27798

>  <SCORE.INTER.ROT>
3

>  <SCORE.INTER.SOLV>
13.6958

>  <SCORE.INTER.VDW>
-12.9171

>  <SCORE.INTER.norm>
-2.31979

>  <SCORE.INTRA>
0.128184

>  <SCORE.INTRA.DIHEDRAL>
-0.0506109

>  <SCORE.INTRA.DIHEDRAL.0>
1.25103

>  <SCORE.INTRA.POLAR>
0

>  <SCORE.INTRA.POLAR.0>
0

>  <SCORE.INTRA.REPUL>
0

>  <SCORE.INTRA.REPUL.0>
0

>  <SCORE.INTRA.SOLV>
0.494078

>  <SCORE.INTRA.SOLV.lig_0>
-16.9138

>  <SCORE.INTRA.VDW>
-0.0935496

>  <SCORE.INTRA.VDW.0>
-0.037037

>  <SCORE.INTRA.norm>
0.0116531

>  <SCORE.RESTR>
0

>  <SCORE.RESTR.CAVITY>
0

>  <SCORE.RESTR.norm>
0

>  <SCORE.SYSTEM>
-19.8067

>  <SCORE.SYSTEM.CONST>
0

>  <SCORE.SYSTEM.DIHEDRAL>
4.66377

>  <SCORE.SYSTEM.POLAR>
-3.1351

>  <SCORE.SYSTEM.SOLV>
0.0481368

>  <SCORE.SYSTEM.VDW>
-4.32478

>  <SCORE.SYSTEM.norm>
-1.80061

>  <SCORE.heavy>
11

>  <SCORE.norm>
-4.10875

$$$$
P107223365
 OpenBabel12072022113D
libRbt.so/2013.1/901 2013/11/27
 15 15  0  0  0  0  0  0  0  0999 V2000
  -31.0801   18.4341  -16.1015 C   0  0  0  0  0  0  0  0  0  0  0  0
  -30.6788   17.6735  -17.3622 C   0  0  0  0  0  0  0  0  0  0  0  0
  -29.2159   17.2270  -17.3087 C   0  0  0  0  0  0  0  0  0  0  0  0
  -28.8804   16.4178  -16.0395 C   0  0  0  0  0  0  0  0  0  0  0  0
  -29.3243   17.1870  -14.7786 C   0  0  0  0  0  0  0  0  0  0  0  0
  -30.7871   17.6331  -14.8362 C   0  0  0  0  0  0  0  0  0  0  0  0
  -27.3539   16.1119  -15.9789 C   0  0  0  0  0  0  0  0  0  0  0  0
  -26.5578   16.7980  -15.3309 O   0  0  0  0  0  0  0  0  0  0  0  0
  -26.9215   15.0248  -16.6995 N   0  0  0  0  0  0  0  0  0  0  0  0
  -25.5196   14.8869  -16.8257 O   0  0  0  0  0  0  0  0  0  0  0  0
  -29.6128   15.1255  -16.0928 N   0  0  0  0  0  0  0  0  0  0  0  0
  -27.4715   14.1874  -16.8534 H   0  0  0  0  0  0  0  0  0  0  0  0
  -25.4115   14.6942  -17.7837 H   0  0  0  0  0  0  0  0  0  0  0  0
  -30.6158   15.3293  -16.0862 H   0  0  0  0  0  0  0  0  0  0  0  0
  -29.4658   14.6420  -15.2026 H   0  0  0  0  0  0  0  0  0  0  0  0
  1  2  1  0  0  0  0
  1  6  1  0  0  0  0
  2  3  1  0  0  0  0
  3  4  1  0  0  0  0
  4  5  1  0  0  0  0
  4  7  1  0  0  0  0
  4 11  1  0  0  0  0
  5  6  1  0  0  0  0
  7  8  2  0  0  0  0
  7  9  1  0  0  0  0
  9 10  1  0  0  0  0
  9 12  1  0  0  0  0
 10 13  1  0  0  0  0
 11 14  1  0  0  0  0
 11 15  1  0  0  0  0
M  END
>  <CHROM.0>
-59.30959538,60.29017348,-63.07392148,-43.76021385,-175.35113749,-58.12224528
-68.36918524,-59.69540263,-168.95960145

>  <CHROM.1>
96.68055697,-62.84820967,169.65020171,-133.66789890,-28.65748972,16.53481707
-16.13397194,2.84100127,-0.41588147,1.09792084

>  <Name>
P107223365

>  <RI>
0

>  <Rbt.Current_Directory>
/home/fstefaniak/projects/zuza/docking/adenine/4TZX

>  <Rbt.Executable>
rbdock ($Id: //depot/dev/client3/rdock/2013.1/src/exe/rbdock.cxx#4 $)

>  <Rbt.Library>
libRbt.so (2013.1, Build901 2013/11/27)

>  <Rbt.Parameter_File>
/home/fstefaniak/progs/rDock//data/scripts/dock_solv.prm

>  <Rbt.Receptor>
4tzx.prm

>  <SCORE>
-43.2391

>  <SCORE.INTER>
-23.1266

>  <SCORE.INTER.CONST>
1

>  <SCORE.INTER.POLAR>
-3.30026

>  <SCORE.INTER.ROT>
3

>  <SCORE.INTER.SOLV>
12.6394

>  <SCORE.INTER.VDW>
-14.23

>  <SCORE.INTER.norm>
-2.10242

>  <SCORE.INTRA>
0.314396

>  <SCORE.INTRA.DIHEDRAL>
1.05047

>  <SCORE.INTRA.DIHEDRAL.0>
1.25103

>  <SCORE.INTRA.POLAR>
0

>  <SCORE.INTRA.POLAR.0>
0

>  <SCORE.INTRA.REPUL>
0

>  <SCORE.INTRA.REPUL.0>
0

>  <SCORE.INTRA.SOLV>
-0.0385724

>  <SCORE.INTRA.SOLV.lig_0>
-16.9138

>  <SCORE.INTRA.VDW>
-0.191555

>  <SCORE.INTRA.VDW.0>
-0.037037

>  <SCORE.INTRA.norm>
0.0285814

>  <SCORE.RESTR>
0

>  <SCORE.RESTR.CAVITY>
0

>  <SCORE.RESTR.norm>
0

>  <SCORE.SYSTEM>
-20.4269

>  <SCORE.SYSTEM.CONST>
0

>  <SCORE.SYSTEM.DIHEDRAL>
4.32612

>  <SCORE.SYSTEM.POLAR>
-3.04519

>  <SCORE.SYSTEM.SOLV>
0.0677213

>  <SCORE.SYSTEM.VDW>
-4.93193

>  <SCORE.SYSTEM.norm>
-1.85699

>  <SCORE.heavy>
11

>  <SCORE.norm>
-3.93083

$$$$
P107232038
 OpenBabel12072022113D
libRbt.so/2013.1/901 2013/11/27
 14 14  0  0  0  0  0  0  0  0999 V2000
  -26.8533   12.9598  -16.8911 C   0  0  0  0  0  0  0  0  0  0  0  0
  -28.1124   13.4939  -16.2100 C   0  0  0  0  0  0  0  0  0  0  0  0
  -28.3567   14.9721  -16.5613 C   0  0  2  0  0  0  0  0  0  0  0  0
  -27.1169   15.8126  -16.2484 C   0  0  0  0  0  0  0  0  0  0  0  0
  -25.9432   15.2337  -16.9896 N   0  3  0  0  0  0  0  0  0  0  0  0
  -26.1157   15.3166  -17.9970 H   0  0  0  0  0  0  0  0  0  0  0  0
  -25.1421   15.8392  -16.7730 H   0  0  0  0  0  0  0  0  0  0  0  0
  -25.6449   13.8329  -16.5946 C   0  0  0  0  0  0  0  0  0  0  0  0
  -29.6234   15.5196  -15.8877 C   0  0  0  0  0  0  0  0  0  0  0  0
  -30.0498   16.8767  -16.4260 C   0  0  0  0  0  0  0  0  0  0  0  0
  -29.5739   17.3047  -17.4806 O   0  0  0  0  0  0  0  0  0  0  0  0
  -31.0689   17.5497  -15.7953 N   0  0  0  0  0  0  0  0  0  0  0  0
  -31.4894   18.7842  -16.2577 O   0  5  0  0  0  0  0  0  0  0  0  0
  -31.7828   16.9778  -15.3513 H   0  0  0  0  0  0  0  0  0  0  0  0
  1  2  1  0  0  0  0
  1  8  1  0  0  0  0
  2  3  1  0  0  0  0
  3  4  1  0  0  0  0
  3  9  1  1  0  0  0
  4  5  1  0  0  0  0
  5  6  1  0  0  0  0
  5  7  1  0  0  0  0
  5  8  1  0  0  0  0
  9 10  1  0  0  0  0
 10 11  2  0  0  0  0
 10 12  1  0  0  0  0
 12 13  1  0  0  0  0
 12 14  1  0  0  0  0
M  CHG  2   5   1  13  -1
M  END
>  <CHROM.0>
-60.73510018,-173.05693546,-64.77349527,-44.46466364,-58.02237206,-62.09270616
-66.39396260,-58.75905604,-168.25116749

>  <CHROM.1>
-168.41826275,14.60645624,-179.73877489,-28.54566788,15.72261828,-16.49977600
0.68572892,-0.25084445,2.94351395

>  <Name>
P107232038

>  <RI>
0

>  <Rbt.Current_Directory>
/home/fstefaniak/projects/zuza/docking/adenine/4TZX

>  <Rbt.Executable>
rbdock ($Id: //depot/dev/client3/rdock/2013.1/src/exe/rbdock.cxx#4 $)

>  <Rbt.Library>
libRbt.so (2013.1, Build901 2013/11/27)

>  <Rbt.Parameter_File>
/home/fstefaniak/progs/rDock//data/scripts/dock_solv.prm

>  <Rbt.Receptor>
4tzx.prm

>  <SCORE>
-51.4183

>  <SCORE.INTER>
-28.6044

>  <SCORE.INTER.CONST>
1

>  <SCORE.INTER.POLAR>
-4.48831

>  <SCORE.INTER.ROT>
3

>  <SCORE.INTER.SOLV>
26.3393

>  <SCORE.INTER.VDW>
-18.4883

>  <SCORE.INTER.norm>
-2.6004

>  <SCORE.INTRA>
-1.85223

>  <SCORE.INTRA.DIHEDRAL>
0.091263

>  <SCORE.INTRA.DIHEDRAL.0>
2.07924

>  <SCORE.INTRA.POLAR>
0

>  <SCORE.INTRA.POLAR.0>
0

>  <SCORE.INTRA.REPUL>
0

>  <SCORE.INTRA.REPUL.0>
0

>  <SCORE.INTRA.SOLV>
-4.05787

>  <SCORE.INTRA.SOLV.lig_0>
-54.5256

>  <SCORE.INTRA.VDW>
0.131072

>  <SCORE.INTRA.VDW.0>
-0.252638

>  <SCORE.INTRA.norm>
-0.168385

>  <SCORE.RESTR>
0

>  <SCORE.RESTR.CAVITY>
0

>  <SCORE.RESTR.norm>
0

>  <SCORE.SYSTEM>
-20.9617

>  <SCORE.SYSTEM.CONST>
0

>  <SCORE.SYSTEM.DIHEDRAL>
4.39096

>  <SCORE.SYSTEM.POLAR>
-3.01623

>  <SCORE.SYSTEM.SOLV>
0.153108

>  <SCORE.SYSTEM.VDW>
-5.43505

>  <SCORE.SYSTEM.norm>
-1.90561

>  <SCORE.heavy>
11

>  <SCORE.norm>
-4.67439

$$$$
P107232038
 OpenBabel12072022113D
libRbt.so/2013.1/901 2013/11/27
 14 14  0  0  0  0  0  0  0  0999 V2000
  -27.1020   13.5003  -17.0398 C   0  0  0  0  0  0  0  0  0  0  0  0
  -28.0620   14.4351  -16.3055 C   0  0  0  0  0  0  0  0  0  0  0  0
  -27.6629   15.9095  -16.4923 C   0  0  2  0  0  0  0  0  0  0  0  0
  -26.2035   16.1284  -16.0875 C   0  0  0  0  0  0  0  0  0  0  0  0
  -25.3369   15.1943  -16.8865 N   0  3  0  0  0  0  0  0  0  0  0  0
  -25.4133   15.4410  -17.8789 H   0  0  0  0  0  0  0  0  0  0  0  0
  -24.3691   15.3909  -16.6036 H   0  0  0  0  0  0  0  0  0  0  0  0
  -25.6572   13.7634  -16.6476 C   0  0  0  0  0  0  0  0  0  0  0  0
  -28.6239   16.8603  -15.7641 C   0  0  0  0  0  0  0  0  0  0  0  0
  -29.9128   17.1131  -16.5311 C   0  0  0  0  0  0  0  0  0  0  0  0
  -30.0054   16.7846  -17.7166 O   0  0  0  0  0  0  0  0  0  0  0  0
  -31.0095   17.5824  -15.8483 N   0  0  0  0  0  0  0  0  0  0  0  0
  -31.6525   18.7373  -16.2575 O   0  5  0  0  0  0  0  0  0  0  0  0
  -31.5980   16.8839  -15.4015 H   0  0  0  0  0  0  0  0  0  0  0  0
  1  2  1  0  0  0  0
  1  8  1  0  0  0  0
  2  3  1  0  0  0  0
  3  4  1  0  0  0  0
  3  9  1  1  0  0  0
  4  5  1  0  0  0  0
  5  6  1  0  0  0  0
  5  7  1  0  0  0  0
  5  8  1  0  0  0  0
  9 10  1  0  0  0  0
 10 11  2  0  0  0  0
 10 12  1  0  0  0  0
 12 13  1  0  0  0  0
 12 14  1  0  0  0  0
M  CHG  2   5   1  13  -1
M  END
>  <CHROM.0>
-59.27633129,-173.39316811,-65.96034309,-43.70395094,-176.03849012,60.06522967
-68.35695395,-172.75636132,-169.30172993

>  <CHROM.1>
-80.10985342,-13.38680408,125.33965160,-28.31785498,16.02918579,-16.52107917
0.59988137,0.12396816,-2.86616238

>  <Name>
P107232038

>  <RI>
0

>  <Rbt.Current_Directory>
/home/fstefaniak/projects/zuza/docking/adenine/4TZX

>  <Rbt.Executable>
rbdock ($Id: //depot/dev/client3/rdock/2013.1/src/exe/rbdock.cxx#4 $)

>  <Rbt.Library>
libRbt.so (2013.1, Build901 2013/11/27)

>  <Rbt.Parameter_File>
/home/fstefaniak/progs/rDock//data/scripts/dock_solv.prm

>  <Rbt.Receptor>
4tzx.prm

>  <SCORE>
-51.1978

>  <SCORE.INTER>
-29.3565

>  <SCORE.INTER.CONST>
1

>  <SCORE.INTER.POLAR>
-4.83146

>  <SCORE.INTER.ROT>
3

>  <SCORE.INTER.SOLV>
27.5199

>  <SCORE.INTER.VDW>
-18.2395

>  <SCORE.INTER.norm>
-2.66877

>  <SCORE.INTRA>
-1.7877

>  <SCORE.INTRA.DIHEDRAL>
1.16216

>  <SCORE.INTRA.DIHEDRAL.0>
2.07924

>  <SCORE.INTRA.POLAR>
0

>  <SCORE.INTRA.POLAR.0>
0

>  <SCORE.INTRA.REPUL>
0

>  <SCORE.INTRA.REPUL.0>
0

>  <SCORE.INTRA.SOLV>
-4.09954

>  <SCORE.INTRA.SOLV.lig_0>
-54.5256

>  <SCORE.INTRA.VDW>
-0.319008

>  <SCORE.INTRA.VDW.0>
-0.252638

>  <SCORE.INTRA.norm>
-0.162518

>  <SCORE.RESTR>
0

>  <SCORE.RESTR.CAVITY>
0

>  <SCORE.RESTR.norm>
0

>  <SCORE.SYSTEM>
-20.0536

>  <SCORE.SYSTEM.CONST>
0

>  <SCORE.SYSTEM.DIHEDRAL>
4.81941

>  <SCORE.SYSTEM.POLAR>
-3.03108

>  <SCORE.SYSTEM.SOLV>
-0.302823

>  <SCORE.SYSTEM.VDW>
-4.77101

>  <SCORE.SYSTEM.norm>
-1.82306

>  <SCORE.heavy>
11

>  <SCORE.norm>
-4.65435

$$$$
P107232038
 OpenBabel12072022113D
libRbt.so/2013.1/901 2013/11/27
 14 14  0  0  0  0  0  0  0  0999 V2000
  -26.8955   13.0295  -16.8807 C   0  0  0  0  0  0  0  0  0  0  0  0
  -28.1623   13.5451  -16.1996 C   0  0  0  0  0  0  0  0  0  0  0  0
  -28.4261   15.0207  -16.5479 C   0  0  2  0  0  0  0  0  0  0  0  0
  -27.1979   15.8770  -16.2320 C   0  0  0  0  0  0  0  0  0  0  0  0
  -26.0159   15.3156  -16.9733 N   0  3  0  0  0  0  0  0  0  0  0  0
  -26.1885   15.3984  -17.9807 H   0  0  0  0  0  0  0  0  0  0  0  0
  -25.2232   15.9313  -16.7546 H   0  0  0  0  0  0  0  0  0  0  0  0
  -25.6992   13.9180  -16.5811 C   0  0  0  0  0  0  0  0  0  0  0  0
  -29.7006   15.5496  -15.8743 C   0  0  0  0  0  0  0  0  0  0  0  0
  -30.1902   16.8628  -16.4654 C   0  0  0  0  0  0  0  0  0  0  0  0
  -29.7587   17.2544  -17.5527 O   0  0  0  0  0  0  0  0  0  0  0  0
  -31.2158   17.5301  -15.8392 N   0  0  0  0  0  0  0  0  0  0  0  0
  -31.2024   18.9104  -15.7429 O   0  5  0  0  0  0  0  0  0  0  0  0
  -32.1356   17.1001  -15.8928 H   0  0  0  0  0  0  0  0  0  0  0  0
  1  2  1  0  0  0  0
  1  8  1  0  0  0  0
  2  3  1  0  0  0  0
  3  4  1  0  0  0  0
  3  9  1  1  0  0  0
  4  5  1  0  0  0  0
  5  6  1  0  0  0  0
  5  7  1  0  0  0  0
  5  8  1  0  0  0  0
  9 10  1  0  0  0  0
 10 11  2  0  0  0  0
 10 12  1  0  0  0  0
 12 13  1  0  0  0  0
 12 14  1  0  0  0  0
M  CHG  2   5   1  13  -1
M  END
>  <CHROM.0>
-58.66948426,-170.28383627,61.64388429,-42.53530048,-58.96503043,-60.65564065
55.13055745,-59.76386340,-168.86704348

>  <CHROM.1>
-165.06580929,15.13948763,140.95098225,-28.60138857,15.76727030,-16.45687893
0.69897673,-0.22518506,3.01896399

>  <Name>
P107232038

>  <RI>
0

>  <Rbt.Current_Directory>
/home/fstefaniak/projects/zuza/docking/adenine/4TZX

>  <Rbt.Executable>
rbdock ($Id: //depot/dev/client3/rdock/2013.1/src/exe/rbdock.cxx#4 $)

>  <Rbt.Library>
libRbt.so (2013.1, Build901 2013/11/27)

>  <Rbt.Parameter_File>
/home/fstefaniak/progs/rDock//data/scripts/dock_solv.prm

>  <Rbt.Receptor>
4tzx.prm

>  <SCORE>
-50.9006

>  <SCORE.INTER>
-30.0165

>  <SCORE.INTER.CONST>
1

>  <SCORE.INTER.POLAR>
-4.9642

>  <SCORE.INTER.ROT>
3

>  <SCORE.INTER.SOLV>
27.292

>  <SCORE.INTER.VDW>
-18.161

>  <SCORE.INTER.norm>
-2.72877

>  <SCORE.INTRA>
-1.99554

>  <SCORE.INTRA.DIHEDRAL>
0.475624

>  <SCORE.INTRA.DIHEDRAL.0>
2.07924

>  <SCORE.INTRA.POLAR>
0

>  <SCORE.INTRA.POLAR.0>
0

>  <SCORE.INTRA.REPUL>
0

>  <SCORE.INTRA.REPUL.0>
0

>  <SCORE.INTRA.SOLV>
-4.10095

>  <SCORE.INTRA.SOLV.lig_0>
-54.5256

>  <SCORE.INTRA.VDW>
-0.182882

>  <SCORE.INTRA.VDW.0>
-0.252638

>  <SCORE.INTRA.norm>
-0.181413

>  <SCORE.RESTR>
0

>  <SCORE.RESTR.CAVITY>
0

>  <SCORE.RESTR.norm>
0

>  <SCORE.SYSTEM>
-18.8886

>  <SCORE.SYSTEM.CONST>
0

>  <SCORE.SYSTEM.DIHEDRAL>
4.61571

>  <SCORE.SYSTEM.POLAR>
-3.0398

>  <SCORE.SYSTEM.SOLV>
0.0480231

>  <SCORE.SYSTEM.VDW>
-4.01427

>  <SCORE.SYSTEM.norm>
-1.71714

>  <SCORE.heavy>
11

>  <SCORE.norm>
-4.62733

$$$$
P107375654
 OpenBabel12072022113D
libRbt.so/2013.1/901 2013/11/27
 15 15  0  0  0  0  0  0  0  0999 V2000
  -24.6844   11.5113  -16.0434 C   0  0  0  0  0  0  0  0  0  0  0  0
  -25.6609   12.5165  -16.6555 C   0  0  2  0  0  0  0  0  0  0  0  0
  -25.3466   13.9456  -16.1877 C   0  0  0  0  0  0  0  0  0  0  0  0
  -26.3223   14.9817  -16.7613 C   0  0  0  0  0  0  0  0  0  0  0  0
  -27.7449   14.6466  -16.7240 N   0  0  0  0  0  0  0  0  0  0  0  0
  -28.0555   13.2447  -17.0245 C   0  0  0  0  0  0  0  0  0  0  0  0
  -27.1343   12.1629  -16.3913 C   0  0  2  0  0  0  0  0  0  0  0  0
  -27.3827   11.9994  -14.9414 N   0  3  0  0  0  0  0  0  0  0  0  0
  -28.3771   12.2070  -14.6817 H   0  0  0  0  0  0  0  0  0  0  0  0
  -27.3788   10.9829  -14.6615 H   0  0  0  0  0  0  0  0  0  0  0  0
  -26.7785   12.4973  -14.2924 H   0  0  0  0  0  0  0  0  0  0  0  0
  -28.5156   15.2476  -15.5954 C   0  0  0  0  0  0  0  0  0  0  0  0
  -29.7968   15.9312  -16.0868 C   0  0  0  0  0  0  0  0  0  0  0  0
  -30.6894   16.1239  -15.1957 O   0  0  0  0  0  0  0  0  0  0  0  0
  -29.7178   16.6139  -17.1517 O   0  5  0  0  0  0  0  0  0  0  0  0
  2  3  1  0  0  0  0
  2  1  1  1  0  0  0
  2  7  1  0  0  0  0
  3  4  1  0  0  0  0
  4  5  1  0  0  0  0
  5  6  1  0  0  0  0
  5 12  1  0  0  0  0
  6  7  1  0  0  0  0
  7  8  1  1  0  0  0
  8  9  1  0  0  0  0
  8 10  1  0  0  0  0
  8 11  1  0  0  0  0
 12 13  1  0  0  0  0
 13 14  2  0  0  0  0
 13 15  1  0  0  0  0
M  CHG  2   8   1  15  -1
M  END
>  <CHROM.0>
-56.90828855,178.72965176,-62.82044260,-43.12954216,-53.17605763,-53.79309748
-66.09780250,-173.88376055,-168.68399355

>  <CHROM.1>
130.44078512,153.02618225,160.53679176,-27.61727917,14.07511686,-16.19626712
-0.66763464,0.36477190,-0.42377538

>  <Name>
P107375654

>  <RI>
0

>  <Rbt.Current_Directory>
/home/fstefaniak/projects/zuza/docking/adenine/4TZX

>  <Rbt.Executable>
rbdock ($Id: //depot/dev/client3/rdock/2013.1/src/exe/rbdock.cxx#4 $)

>  <Rbt.Library>
libRbt.so (2013.1, Build901 2013/11/27)

>  <Rbt.Parameter_File>
/home/fstefaniak/progs/rDock//data/scripts/dock_solv.prm

>  <Rbt.Receptor>
4tzx.prm

>  <SCORE>
-51.0449

>  <SCORE.INTER>
-22.1068

>  <SCORE.INTER.CONST>
1

>  <SCORE.INTER.POLAR>
-3.46141

>  <SCORE.INTER.ROT>
2

>  <SCORE.INTER.SOLV>
19.5902

>  <SCORE.INTER.VDW>
-14.6633

>  <SCORE.INTER.norm>
-1.84223

>  <SCORE.INTRA>
-8.19139

>  <SCORE.INTRA.DIHEDRAL>
2.31042

>  <SCORE.INTRA.DIHEDRAL.0>
2.41111

>  <SCORE.INTRA.POLAR>
0

>  <SCORE.INTRA.POLAR.0>
0

>  <SCORE.INTRA.REPUL>
0

>  <SCORE.INTRA.REPUL.0>
0

>  <SCORE.INTRA.SOLV>
-12.8558

>  <SCORE.INTRA.SOLV.lig_0>
-37.2252

>  <SCORE.INTRA.VDW>
-2.91869

>  <SCORE.INTRA.VDW.0>
1.86258

>  <SCORE.INTRA.norm>
-0.682616

>  <SCORE.RESTR>
0

>  <SCORE.RESTR.CAVITY>
0

>  <SCORE.RESTR.norm>
0

>  <SCORE.SYSTEM>
-20.7467

>  <SCORE.SYSTEM.CONST>
0

>  <SCORE.SYSTEM.DIHEDRAL>
4.77384

>  <SCORE.SYSTEM.POLAR>
-3.11418

>  <SCORE.SYSTEM.SOLV>
0.0605015

>  <SCORE.SYSTEM.VDW>
-5.062

>  <SCORE.SYSTEM.norm>
-1.7289

>  <SCORE.heavy>
12

>  <SCORE.norm>
-4.25375

$$$$
P107375654
 OpenBabel12072022113D
libRbt.so/2013.1/901 2013/11/27
 15 15  0  0  0  0  0  0  0  0999 V2000
  -24.5424   11.7523  -15.7324 C   0  0  0  0  0  0  0  0  0  0  0  0
  -25.5313   12.6517  -16.4752 C   0  0  2  0  0  0  0  0  0  0  0  0
  -25.4162   14.1081  -16.0002 C   0  0  0  0  0  0  0  0  0  0  0  0
  -26.4120   15.0386  -16.7053 C   0  0  0  0  0  0  0  0  0  0  0  0
  -27.7893   14.5648  -16.8316 N   0  0  0  0  0  0  0  0  0  0  0  0
  -27.9235   13.1370  -17.1406 C   0  0  0  0  0  0  0  0  0  0  0  0
  -26.9843   12.1560  -16.3819 C   0  0  2  0  0  0  0  0  0  0  0  0
  -27.3885   11.9788  -14.9691 N   0  3  0  0  0  0  0  0  0  0  0  0
  -27.1553   11.0237  -14.6049 H   0  0  0  0  0  0  0  0  0  0  0  0
  -26.7667   12.5278  -14.3182 H   0  0  0  0  0  0  0  0  0  0  0  0
  -28.3519   12.1842  -14.7168 H   0  0  0  0  0  0  0  0  0  0  0  0
  -28.7451   15.0944  -15.8143 C   0  0  0  0  0  0  0  0  0  0  0  0
  -28.7941   16.6266  -15.8287 C   0  0  0  0  0  0  0  0  0  0  0  0
  -28.2800   17.1992  -14.8110 O   0  0  0  0  0  0  0  0  0  0  0  0
  -28.9192   17.1921  -16.9561 O   0  5  0  0  0  0  0  0  0  0  0  0
  2  3  1  0  0  0  0
  2  1  1  1  0  0  0
  2  7  1  0  0  0  0
  3  4  1  0  0  0  0
  4  5  1  0  0  0  0
  5  6  1  0  0  0  0
  5 12  1  0  0  0  0
  6  7  1  0  0  0  0
  7  8  1  1  0  0  0
  8  9  1  0  0  0  0
  8 10  1  0  0  0  0
  8 11  1  0  0  0  0
 12 13  1  0  0  0  0
 13 14  2  0  0  0  0
 13 15  1  0  0  0  0
M  CHG  2   8   1  15  -1
M  END
>  <CHROM.0>
-57.43528890,171.27162936,-65.57388937,-43.09814443,-61.79935592,-62.44561787
-67.15896764,-62.86467263,-168.11774977

>  <CHROM.1>
57.48409532,-88.00581536,-109.96964254,-27.23928357,14.29651787,-16.10135254
-1.01874403,-0.00241958,-0.01175851

>  <Name>
P107375654

>  <RI>
0

>  <Rbt.Current_Directory>
/home/fstefaniak/projects/zuza/docking/adenine/4TZX

>  <Rbt.Executable>
rbdock ($Id: //depot/dev/client3/rdock/2013.1/src/exe/rbdock.cxx#4 $)

>  <Rbt.Library>
libRbt.so (2013.1, Build901 2013/11/27)

>  <Rbt.Parameter_File>
/home/fstefaniak/progs/rDock//data/scripts/dock_solv.prm

>  <Rbt.Receptor>
4tzx.prm

>  <SCORE>
-50.6495

>  <SCORE.INTER>
-22.4947

>  <SCORE.INTER.CONST>
1

>  <SCORE.INTER.POLAR>
-3.4023

>  <SCORE.INTER.ROT>
2

>  <SCORE.INTER.SOLV>
17.1269

>  <SCORE.INTER.VDW>
-14.2978

>  <SCORE.INTER.norm>
-1.87456

>  <SCORE.INTRA>
-7.58113

>  <SCORE.INTRA.DIHEDRAL>
1.31553

>  <SCORE.INTRA.DIHEDRAL.0>
2.41111

>  <SCORE.INTRA.POLAR>
0

>  <SCORE.INTRA.POLAR.0>
0

>  <SCORE.INTRA.REPUL>
0

>  <SCORE.INTRA.REPUL.0>
0

>  <SCORE.INTRA.SOLV>
-11.6862

>  <SCORE.INTRA.SOLV.lig_0>
-37.2252

>  <SCORE.INTRA.VDW>
-2.3958

>  <SCORE.INTRA.VDW.0>
1.86258

>  <SCORE.INTRA.norm>
-0.631761

>  <SCORE.RESTR>
0

>  <SCORE.RESTR.CAVITY>
0

>  <SCORE.RESTR.norm>
0

>  <SCORE.SYSTEM>
-20.5737

>  <SCORE.SYSTEM.CONST>
0

>  <SCORE.SYSTEM.DIHEDRAL>
4.8696

>  <SCORE.SYSTEM.POLAR>
-3.0663

>  <SCORE.SYSTEM.SOLV>
0.164451

>  <SCORE.SYSTEM.VDW>
-5.17281

>  <SCORE.SYSTEM.norm>
-1.71447

>  <SCORE.heavy>
12

>  <SCORE.norm>
-4.2208

$$$$
P107375654
 OpenBabel12072022113D
libRbt.so/2013.1/901 2013/11/27
 15 15  0  0  0  0  0  0  0  0999 V2000
  -24.3456   12.2126  -16.0222 C   0  0  0  0  0  0  0  0  0  0  0  0
  -25.3935   13.1078  -16.6849 C   0  0  2  0  0  0  0  0  0  0  0  0
  -25.4906   14.4647  -15.9712 C   0  0  0  0  0  0  0  0  0  0  0  0
  -26.5515   15.3830  -16.5923 C   0  0  0  0  0  0  0  0  0  0  0  0
  -27.8485   14.7844  -16.9036 N   0  0  0  0  0  0  0  0  0  0  0  0
  -27.7838   13.4248  -17.4510 C   0  0  0  0  0  0  0  0  0  0  0  0
  -26.7758   12.4415  -16.7899 C   0  0  2  0  0  0  0  0  0  0  0  0
  -27.2379   11.9799  -15.4617 N   0  3  0  0  0  0  0  0  0  0  0  0
  -28.1380   11.4451  -15.5168 H   0  0  0  0  0  0  0  0  0  0  0  0
  -26.6363   11.1956  -15.0950 H   0  0  0  0  0  0  0  0  0  0  0  0
  -27.3274   12.6690  -14.7192 H   0  0  0  0  0  0  0  0  0  0  0  0
  -28.9220   15.0196  -15.8931 C   0  0  0  0  0  0  0  0  0  0  0  0
  -29.2759   16.5070  -15.7805 C   0  0  0  0  0  0  0  0  0  0  0  0
  -29.2239   17.1651  -16.8723 O   0  0  0  0  0  0  0  0  0  0  0  0
  -29.9774   16.8623  -14.7865 O   0  5  0  0  0  0  0  0  0  0  0  0
  2  3  1  0  0  0  0
  2  1  1  1  0  0  0
  2  7  1  0  0  0  0
  3  4  1  0  0  0  0
  4  5  1  0  0  0  0
  5  6  1  0  0  0  0
  5 12  1  0  0  0  0
  6  7  1  0  0  0  0
  7  8  1  1  0  0  0
  8  9  1  0  0  0  0
  8 10  1  0  0  0  0
  8 11  1  0  0  0  0
 12 13  1  0  0  0  0
 13 14  2  0  0  0  0
 13 15  1  0  0  0  0
M  CHG  2   8   1  15  -1
M  END
>  <CHROM.0>
-62.02295079,168.25550943,-64.98462904,-43.63526139,-179.19505682,-66.27363745
-62.11964611,-62.38866258,-169.26032752

>  <CHROM.1>
64.13058896,-174.83230129,35.36440468,-27.42752651,14.44051192,-16.23587367
-0.79755158,0.22683605,-0.12152093

>  <Name>
P107375654

>  <RI>
0

>  <Rbt.Current_Directory>
/home/fstefaniak/projects/zuza/docking/adenine/4TZX

>  <Rbt.Executable>
rbdock ($Id: //depot/dev/client3/rdock/2013.1/src/exe/rbdock.cxx#4 $)

>  <Rbt.Library>
libRbt.so (2013.1, Build901 2013/11/27)

>  <Rbt.Parameter_File>
/home/fstefaniak/progs/rDock//data/scripts/dock_solv.prm

>  <Rbt.Receptor>
4tzx.prm

>  <SCORE>
-50.185

>  <SCORE.INTER>
-20.0923

>  <SCORE.INTER.CONST>
1

>  <SCORE.INTER.POLAR>
-2.64406

>  <SCORE.INTER.ROT>
2

>  <SCORE.INTER.SOLV>
16.5461

>  <SCORE.INTER.VDW>
-15.03

>  <SCORE.INTER.norm>
-1.67436

>  <SCORE.INTRA>
-9.55817

>  <SCORE.INTRA.DIHEDRAL>
-1.07812

>  <SCORE.INTRA.DIHEDRAL.0>
2.41111

>  <SCORE.INTRA.POLAR>
0

>  <SCORE.INTRA.POLAR.0>
0

>  <SCORE.INTRA.REPUL>
0

>  <SCORE.INTRA.REPUL.0>
0

>  <SCORE.INTRA.SOLV>
-12.6339

>  <SCORE.INTRA.SOLV.lig_0>
-37.2252

>  <SCORE.INTRA.VDW>
-2.70218

>  <SCORE.INTRA.VDW.0>
1.86258

>  <SCORE.INTRA.norm>
-0.796514

>  <SCORE.RESTR>
0

>  <SCORE.RESTR.CAVITY>
0

>  <SCORE.RESTR.norm>
0

>  <SCORE.SYSTEM>
-20.5345

>  <SCORE.SYSTEM.CONST>
0

>  <SCORE.SYSTEM.DIHEDRAL>
4.84574

>  <SCORE.SYSTEM.POLAR>
-3.02382

>  <SCORE.SYSTEM.SOLV>
-0.0169342

>  <SCORE.SYSTEM.VDW>
-5.2199

>  <SCORE.SYSTEM.norm>
-1.71121

>  <SCORE.heavy>
12

>  <SCORE.norm>
-4.18208

$$$$
P107405414
 OpenBabel12072022113D
libRbt.so/2013.1/901 2013/11/27
 15 15  0  0  0  0  0  0  0  0999 V2000
  -30.1869   16.4131  -15.8046 C   0  0  0  0  0  0  0  0  0  0  0  0
  -28.8715   15.6336  -15.6997 C   0  0  1  0  0  0  0  0  0  0  0  0
  -28.9222   14.4131  -16.6353 C   0  0  0  0  0  0  0  0  0  0  0  0
  -27.6456   13.5871  -16.5808 C   0  0  0  0  0  0  0  0  0  0  0  0
  -26.4795   14.4528  -16.8575 N   0  3  1  0  0  0  0  0  0  0  0  0
  -26.5151   14.8402  -17.8315 H   0  0  0  0  0  0  0  0  0  0  0  0
  -26.3472   15.6547  -15.9738 C   0  0  0  0  0  0  0  0  0  0  0  0
  -27.6372   16.5077  -16.0287 C   0  0  2  0  0  0  0  0  0  0  0  0
  -27.5718   17.6647  -15.1297 N   0  0  0  0  0  0  0  0  0  0  0  0
  -25.1358   13.6934  -16.9782 C   0  0  0  0  0  0  0  0  0  0  0  0
  -24.9379   12.7352  -15.7738 C   0  0  0  0  0  0  0  0  0  0  0  0
  -25.2967   13.1593  -14.6538 O   0  0  0  0  0  0  0  0  0  0  0  0
  -24.3635   11.6636  -16.1501 O   0  5  0  0  0  0  0  0  0  0  0  0
  -28.4837   17.8361  -14.7015 H   0  0  0  0  0  0  0  0  0  0  0  0
  -27.3180   18.5163  -15.6291 H   0  0  0  0  0  0  0  0  0  0  0  0
  2  3  1  0  0  0  0
  2  8  1  0  0  0  0
  2  1  1  6  0  0  0
  3  4  1  0  0  0  0
  4  5  1  0  0  0  0
  5  6  1  6  0  0  0
  5  7  1  0  0  0  0
  5 10  1  0  0  0  0
  7  8  1  0  0  0  0
  8  9  1  1  0  0  0
  9 14  1  0  0  0  0
  9 15  1  0  0  0  0
 10 11  1  0  0  0  0
 11 12  2  0  0  0  0
 11 13  1  0  0  0  0
M  CHG  2   5   1  13  -1
M  END
>  <CHROM.0>
-55.43295455,-66.47187417,-63.30735647,-44.36133315,-55.99404669,-58.50991327
-65.80176906,-55.32006767,-169.69421796

>  <CHROM.1>
-49.67956325,-19.24093852,-39.60892237,-26.93687159,14.63881697,-16.01200850
2.38597320,-0.21682711,0.28102022

>  <Name>
P107405414

>  <RI>
0

>  <Rbt.Current_Directory>
/home/fstefaniak/projects/zuza/docking/adenine/4TZX

>  <Rbt.Executable>
rbdock ($Id: //depot/dev/client3/rdock/2013.1/src/exe/rbdock.cxx#4 $)

>  <Rbt.Library>
libRbt.so (2013.1, Build901 2013/11/27)

>  <Rbt.Parameter_File>
/home/fstefaniak/progs/rDock//data/scripts/dock_solv.prm

>  <Rbt.Receptor>
4tzx.prm

>  <SCORE>
-45.4012

>  <SCORE.INTER>
-24.2913

>  <SCORE.INTER.CONST>
1

>  <SCORE.INTER.POLAR>
-4.48336

>  <SCORE.INTER.ROT>
3

>  <SCORE.INTER.SOLV>
18.0699

>  <SCORE.INTER.VDW>
-12.873

>  <SCORE.INTER.norm>
-2.02428

>  <SCORE.INTRA>
-0.247704

>  <SCORE.INTRA.DIHEDRAL>
0.602866

>  <SCORE.INTRA.DIHEDRAL.0>
3.14483

>  <SCORE.INTRA.POLAR>
0

>  <SCORE.INTRA.POLAR.0>
0

>  <SCORE.INTRA.REPUL>
0

>  <SCORE.INTRA.REPUL.0>
0

>  <SCORE.INTRA.SOLV>
-3.02906

>  <SCORE.INTRA.SOLV.lig_0>
-43.7048

>  <SCORE.INTRA.VDW>
0.965395

>  <SCORE.INTRA.VDW.0>
-0.200963

>  <SCORE.INTRA.norm>
-0.020642

>  <SCORE.RESTR>
0.00525543

>  <SCORE.RESTR.CAVITY>
0.00525543

>  <SCORE.RESTR.norm>
0.000437953

>  <SCORE.SYSTEM>
-20.8674

>  <SCORE.SYSTEM.CONST>
0

>  <SCORE.SYSTEM.DIHEDRAL>
4.38206

>  <SCORE.SYSTEM.POLAR>
-3.05577

>  <SCORE.SYSTEM.SOLV>
0.209065

>  <SCORE.SYSTEM.VDW>
-5.25609

>  <SCORE.SYSTEM.norm>
-1.73895

>  <SCORE.heavy>
12

>  <SCORE.norm>
-3.78343

$$$$
P107405414
 OpenBabel12072022113D
libRbt.so/2013.1/901 2013/11/27
 15 15  0  0  0  0  0  0  0  0999 V2000
  -30.2034   16.3582  -15.8254 C   0  0  0  0  0  0  0  0  0  0  0  0
  -28.8791   15.5941  -15.7201 C   0  0  1  0  0  0  0  0  0  0  0  0
  -28.9129   14.3765  -16.6603 C   0  0  0  0  0  0  0  0  0  0  0  0
  -27.6267   13.5656  -16.6057 C   0  0  0  0  0  0  0  0  0  0  0  0
  -26.4703   14.4462  -16.8763 N   0  3  1  0  0  0  0  0  0  0  0  0
  -26.5082   14.8368  -17.8489 H   0  0  0  0  0  0  0  0  0  0  0  0
  -26.3546   15.6463  -15.9879 C   0  0  0  0  0  0  0  0  0  0  0  0
  -27.6545   16.4841  -16.0428 C   0  0  2  0  0  0  0  0  0  0  0  0
  -27.6051   17.6383  -15.1394 N   0  0  0  0  0  0  0  0  0  0  0  0
  -25.1174   13.7033  -16.9964 C   0  0  0  0  0  0  0  0  0  0  0  0
  -24.8853   12.7854  -15.7670 C   0  0  0  0  0  0  0  0  0  0  0  0
  -25.1993   13.2519  -14.6504 O   0  0  0  0  0  0  0  0  0  0  0  0
  -24.3351   11.6952  -16.1258 O   0  5  0  0  0  0  0  0  0  0  0  0
  -28.5257   17.8119  -14.7312 H   0  0  0  0  0  0  0  0  0  0  0  0
  -27.3373   18.4904  -15.6306 H   0  0  0  0  0  0  0  0  0  0  0  0
  2  3  1  0  0  0  0
  2  8  1  0  0  0  0
  2  1  1  6  0  0  0
  3  4  1  0  0  0  0
  4  5  1  0  0  0  0
  5  6  1  6  0  0  0
  5  7  1  0  0  0  0
  5 10  1  0  0  0  0
  7  8  1  0  0  0  0
  8  9  1  1  0  0  0
  9 14  1  0  0  0  0
  9 15  1  0  0  0  0
 10 11  1  0  0  0  0
 11 12  2  0  0  0  0
 11 13  1  0  0  0  0
M  CHG  2   5   1  13  -1
M  END
>  <CHROM.0>
-63.04499385,-66.01123888,-71.45020845,-42.82616488,-57.86621486,-59.68960372
-168.65542030,-59.17624632,-168.66776469

>  <CHROM.1>
-51.92517501,-20.68411743,-41.44846097,-26.92394400,14.63669700,-16.02268681
2.41170791,-0.23243259,0.30244031

>  <Name>
P107405414

>  <RI>
0

>  <Rbt.Current_Directory>
/home/fstefaniak/projects/zuza/docking/adenine/4TZX

>  <Rbt.Executable>
rbdock ($Id: //depot/dev/client3/rdock/2013.1/src/exe/rbdock.cxx#4 $)

>  <Rbt.Library>
libRbt.so (2013.1, Build901 2013/11/27)

>  <Rbt.Parameter_File>
/home/fstefaniak/progs/rDock//data/scripts/dock_solv.prm

>  <Rbt.Receptor>
4tzx.prm

>  <SCORE>
-45.3775

>  <SCORE.INTER>
-24.4811

>  <SCORE.INTER.CONST>
1

>  <SCORE.INTER.POLAR>
-4.54708

>  <SCORE.INTER.ROT>
3

>  <SCORE.INTER.SOLV>
18.3826

>  <SCORE.INTER.VDW>
-12.8913

>  <SCORE.INTER.norm>
-2.04009

>  <SCORE.INTRA>
-0.405505

>  <SCORE.INTRA.DIHEDRAL>
0.392976

>  <SCORE.INTRA.DIHEDRAL.0>
3.14483

>  <SCORE.INTRA.POLAR>
0

>  <SCORE.INTRA.POLAR.0>
0

>  <SCORE.INTRA.REPUL>
0

>  <SCORE.INTRA.REPUL.0>
0

>  <SCORE.INTRA.SOLV>
-3.05572

>  <SCORE.INTRA.SOLV.lig_0>
-43.7048

>  <SCORE.INTRA.VDW>
0.925869

>  <SCORE.INTRA.VDW.0>
-0.200963

>  <SCORE.INTRA.norm>
-0.0337921

>  <SCORE.RESTR>
0.0166959

>  <SCORE.RESTR.CAVITY>
0.0166959

>  <SCORE.RESTR.norm>
0.00139132

>  <SCORE.SYSTEM>
-20.5075

>  <SCORE.SYSTEM.CONST>
0

>  <SCORE.SYSTEM.DIHEDRAL>
5.40231

>  <SCORE.SYSTEM.POLAR>
-3.026

>  <SCORE.SYSTEM.SOLV>
0.155285

>  <SCORE.SYSTEM.VDW>
-5.43755

>  <SCORE.SYSTEM.norm>
-1.70896

>  <SCORE.heavy>
12

>  <SCORE.norm>
-3.78146

$$$$
P107405414
 OpenBabel12072022113D
libRbt.so/2013.1/901 2013/11/27
 15 15  0  0  0  0  0  0  0  0999 V2000
  -24.8050   13.2117  -16.5950 C   0  0  0  0  0  0  0  0  0  0  0  0
  -26.0758   14.0270  -16.8581 C   0  0  1  0  0  0  0  0  0  0  0  0
  -27.3078   13.1155  -16.7214 C   0  0  0  0  0  0  0  0  0  0  0  0
  -28.6108   13.8596  -16.9734 C   0  0  0  0  0  0  0  0  0  0  0  0
  -28.6902   15.0401  -16.0868 N   0  3  1  0  0  0  0  0  0  0  0  0
  -28.7260   14.7568  -15.0776 H   0  0  0  0  0  0  0  0  0  0  0  0
  -27.5354   15.9895  -16.1755 C   0  0  0  0  0  0  0  0  0  0  0  0
  -26.2048   15.2448  -15.9114 C   0  0  2  0  0  0  0  0  0  0  0  0
  -25.0421   16.1281  -16.0482 N   0  0  0  0  0  0  0  0  0  0  0  0
  -30.0421   15.7923  -16.1461 C   0  0  0  0  0  0  0  0  0  0  0  0
  -29.9569   17.1340  -15.3713 C   0  0  0  0  0  0  0  0  0  0  0  0
  -29.8558   17.0590  -14.1275 O   0  0  0  0  0  0  0  0  0  0  0  0
  -30.0717   18.1162  -16.1727 O   0  5  0  0  0  0  0  0  0  0  0  0
  -24.1865   15.5789  -16.1509 H   0  0  0  0  0  0  0  0  0  0  0  0
  -24.9159   16.7154  -15.2246 H   0  0  0  0  0  0  0  0  0  0  0  0
  2  3  1  0  0  0  0
  2  8  1  0  0  0  0
  2  1  1  1  0  0  0
  3  4  1  0  0  0  0
  4  5  1  0  0  0  0
  5  6  1  1  0  0  0
  5  7  1  0  0  0  0
  5 10  1  0  0  0  0
  7  8  1  0  0  0  0
  8  9  1  6  0  0  0
  9 14  1  0  0  0  0
  9 15  1  0  0  0  0
 10 11  1  0  0  0  0
 11 12  2  0  0  0  0
 11 13  1  0  0  0  0
M  CHG  2   5   1  13  -1
M  END
>  <CHROM.0>
-56.05912408,-174.00334340,-62.31711601,-42.88611281,-56.70710426,-58.15830602
-66.89518697,-59.56780939,-169.23859239

>  <CHROM.1>
-170.74163373,-39.53698256,-69.22230003,-27.84258615,15.42419166,-16.07451030
-0.65603638,-0.00537896,0.34890219

>  <Name>
P107405414

>  <RI>
0

>  <Rbt.Current_Directory>
/home/fstefaniak/projects/zuza/docking/adenine/4TZX

>  <Rbt.Executable>
rbdock ($Id: //depot/dev/client3/rdock/2013.1/src/exe/rbdock.cxx#4 $)

>  <Rbt.Library>
libRbt.so (2013.1, Build901 2013/11/27)

>  <Rbt.Parameter_File>
/home/fstefaniak/progs/rDock//data/scripts/dock_solv.prm

>  <Rbt.Receptor>
4tzx.prm

>  <SCORE>
-44.7186

>  <SCORE.INTER>
-24.0907

>  <SCORE.INTER.CONST>
1

>  <SCORE.INTER.POLAR>
-4.17739

>  <SCORE.INTER.ROT>
3

>  <SCORE.INTER.SOLV>
21.651

>  <SCORE.INTER.VDW>
-14.9529

>  <SCORE.INTER.norm>
-2.00756

>  <SCORE.INTRA>
0.267642

>  <SCORE.INTRA.DIHEDRAL>
-0.573448

>  <SCORE.INTRA.DIHEDRAL.0>
3.14483

>  <SCORE.INTRA.POLAR>
0

>  <SCORE.INTRA.POLAR.0>
0

>  <SCORE.INTRA.REPUL>
0

>  <SCORE.INTRA.REPUL.0>
0

>  <SCORE.INTRA.SOLV>
-1.55694

>  <SCORE.INTRA.SOLV.lig_0>
-43.7048

>  <SCORE.INTRA.VDW>
1.33284

>  <SCORE.INTRA.VDW.0>
-0.200963

>  <SCORE.INTRA.norm>
0.0223035

>  <SCORE.RESTR>
0

>  <SCORE.RESTR.CAVITY>
0

>  <SCORE.RESTR.norm>
0

>  <SCORE.SYSTEM>
-20.8955

>  <SCORE.SYSTEM.CONST>
0

>  <SCORE.SYSTEM.DIHEDRAL>
4.49646

>  <SCORE.SYSTEM.POLAR>
-3.08818

>  <SCORE.SYSTEM.SOLV>
0.176357

>  <SCORE.SYSTEM.VDW>
-5.19399

>  <SCORE.SYSTEM.norm>
-1.74129

>  <SCORE.heavy>
12

>  <SCORE.norm>
-3.72655

$$$$
P107707251
 OpenBabel12072022113D
libRbt.so/2013.1/901 2013/11/27
 13 13  0  0  0  0  0  0  0  0999 V2000
  -31.4278   17.8543  -13.3952 C   0  0  0  0  0  0  0  0  0  0  0  0
  -30.5099   17.7482  -14.6053 C   0  0  2  0  0  0  0  0  0  0  0  0
  -31.0479   18.5663  -15.7781 C   0  0  0  0  0  0  0  0  0  0  0  0
  -30.1692   18.3570  -17.0114 C   0  0  1  0  0  0  0  0  0  0  0  0
  -29.9960   16.8656  -17.2999 C   0  0  0  0  0  0  0  0  0  0  0  0
  -29.5245   16.1392  -16.0516 C   0  0  0  0  0  0  0  0  0  0  0  0
  -30.4245   16.3685  -14.9699 O   0  0  0  0  0  0  0  0  0  0  0  0
  -30.8303   19.1905  -18.4593 S   0  0  0  0  0  0  0  0  0  0  0  0
  -30.7498   20.6195  -18.2663 O   0  0  0  0  0  0  0  0  0  0  0  0
  -30.3651   18.5495  -19.6658 O   0  0  0  0  0  0  0  0  0  0  0  0
  -32.4656   18.8339  -18.3658 N   0  0  0  0  0  0  0  0  0  0  0  0
  -32.9875   19.4344  -19.0077 H   0  0  0  0  0  0  0  0  0  0  0  0
  -32.6126   17.8376  -18.5418 H   0  0  0  0  0  0  0  0  0  0  0  0
  2  3  1  0  0  0  0
  2  7  1  0  0  0  0
  2  1  1  1  0  0  0
  3  4  1  0  0  0  0
  4  5  1  0  0  0  0
  4  8  1  6  0  0  0
  5  6  1  0  0  0  0
  6  7  1  0  0  0  0
  8  9  2  0  0  0  0
  8 10  2  0  0  0  0
  8 11  1  0  0  0  0
 11 12  1  0  0  0  0
 11 13  1  0  0  0  0
M  END
>  <CHROM.0>
-156.59094134,-62.33876050,-64.60053234,-43.25398777,-57.61098613,-62.19447124
-65.19541270,-58.72383478,-168.07472479

>  <CHROM.1>
67.46350351,166.47944120,-30.72369152,18.22784126,-16.93564172,1.41745747
-1.03804618,1.92244861

>  <Name>
P107707251

>  <RI>
0

>  <Rbt.Current_Directory>
/home/fstefaniak/projects/zuza/docking/adenine/4TZX

>  <Rbt.Executable>
rbdock ($Id: //depot/dev/client3/rdock/2013.1/src/exe/rbdock.cxx#4 $)

>  <Rbt.Library>
libRbt.so (2013.1, Build901 2013/11/27)

>  <Rbt.Parameter_File>
/home/fstefaniak/progs/rDock//data/scripts/dock_solv.prm

>  <Rbt.Receptor>
4tzx.prm

>  <SCORE>
-50.947

>  <SCORE.INTER>
-33.31

>  <SCORE.INTER.CONST>
1

>  <SCORE.INTER.POLAR>
-4.65249

>  <SCORE.INTER.ROT>
2

>  <SCORE.INTER.SOLV>
13.5235

>  <SCORE.INTER.VDW>
-16.1395

>  <SCORE.INTER.norm>
-3.02818

>  <SCORE.INTRA>
-0.527263

>  <SCORE.INTRA.DIHEDRAL>
-1.58577

>  <SCORE.INTRA.DIHEDRAL.0>
2.50279

>  <SCORE.INTRA.POLAR>
0

>  <SCORE.INTRA.POLAR.0>
0

>  <SCORE.INTRA.REPUL>
0

>  <SCORE.INTRA.REPUL.0>
0

>  <SCORE.INTRA.SOLV>
0.170093

>  <SCORE.INTRA.SOLV.lig_0>
-11.4332

>  <SCORE.INTRA.VDW>
0.180577

>  <SCORE.INTRA.VDW.0>
-0.708663

>  <SCORE.INTRA.norm>
-0.047933

>  <SCORE.RESTR>
0

>  <SCORE.RESTR.CAVITY>
0

>  <SCORE.RESTR.norm>
0

>  <SCORE.SYSTEM>
-17.1097

>  <SCORE.SYSTEM.CONST>
0

>  <SCORE.SYSTEM.DIHEDRAL>
6.52054

>  <SCORE.SYSTEM.POLAR>
-2.47773

>  <SCORE.SYSTEM.SOLV>
0.165212

>  <SCORE.SYSTEM.VDW>
-5.37596

>  <SCORE.SYSTEM.norm>
-1.55543

>  <SCORE.heavy>
11

>  <SCORE.norm>
-4.63154

$$$$
P107707251
 OpenBabel12072022113D
libRbt.so/2013.1/901 2013/11/27
 13 13  0  0  0  0  0  0  0  0999 V2000
  -28.2301   15.1016  -15.9495 C   0  0  0  0  0  0  0  0  0  0  0  0
  -29.5144   15.9115  -15.8356 C   0  0  2  0  0  0  0  0  0  0  0  0
  -29.7305   16.7785  -17.0748 C   0  0  0  0  0  0  0  0  0  0  0  0
  -30.9653   17.6606  -16.8898 C   0  0  1  0  0  0  0  0  0  0  0  0
  -30.8782   18.4366  -15.5753 C   0  0  0  0  0  0  0  0  0  0  0  0
  -30.5943   17.4889  -14.4223 C   0  0  0  0  0  0  0  0  0  0  0  0
  -29.4091   16.7372  -14.6733 O   0  0  0  0  0  0  0  0  0  0  0  0
  -31.1923   18.7986  -18.2616 S   0  0  0  0  0  0  0  0  0  0  0  0
  -30.9520   20.1483  -17.8073 O   0  0  0  0  0  0  0  0  0  0  0  0
  -30.5856   18.2705  -19.4598 O   0  0  0  0  0  0  0  0  0  0  0  0
  -32.8457   18.7201  -18.5258 N   0  0  0  0  0  0  0  0  0  0  0  0
  -33.1257   19.4511  -19.1833 H   0  0  0  0  0  0  0  0  0  0  0  0
  -33.1014   17.7812  -18.8394 H   0  0  0  0  0  0  0  0  0  0  0  0
  2  3  1  0  0  0  0
  2  7  1  0  0  0  0
  2  1  1  6  0  0  0
  3  4  1  0  0  0  0
  4  5  1  0  0  0  0
  4  8  1  6  0  0  0
  5  6  1  0  0  0  0
  6  7  1  0  0  0  0
  8  9  2  0  0  0  0
  8 10  2  0  0  0  0
  8 11  1  0  0  0  0
 11 12  1  0  0  0  0
 11 13  1  0  0  0  0
M  END
>  <CHROM.0>
-163.36094666,-61.02141583,-64.27740304,-43.45081365,-178.12063004,-58.75383351
-67.36557520,-58.64867191,-168.84558158

>  <CHROM.1>
-111.37549905,170.23852098,-30.53570430,17.78833931,-16.96339585,-0.71793546
0.90164594,-1.57880569

>  <Name>
P107707251

>  <RI>
0

>  <Rbt.Current_Directory>
/home/fstefaniak/projects/zuza/docking/adenine/4TZX

>  <Rbt.Executable>
rbdock ($Id: //depot/dev/client3/rdock/2013.1/src/exe/rbdock.cxx#4 $)

>  <Rbt.Library>
libRbt.so (2013.1, Build901 2013/11/27)

>  <Rbt.Parameter_File>
/home/fstefaniak/progs/rDock//data/scripts/dock_solv.prm

>  <Rbt.Receptor>
4tzx.prm

>  <SCORE>
-50.6354

>  <SCORE.INTER>
-33.7142

>  <SCORE.INTER.CONST>
1

>  <SCORE.INTER.POLAR>
-4.15571

>  <SCORE.INTER.ROT>
2

>  <SCORE.INTER.SOLV>
12.6749

>  <SCORE.INTER.VDW>
-17.7821

>  <SCORE.INTER.norm>
-3.06493

>  <SCORE.INTRA>
0.822079

>  <SCORE.INTRA.DIHEDRAL>
0.429719

>  <SCORE.INTRA.DIHEDRAL.0>
2.50279

>  <SCORE.INTRA.POLAR>
0

>  <SCORE.INTRA.POLAR.0>
0

>  <SCORE.INTRA.REPUL>
0

>  <SCORE.INTRA.REPUL.0>
0

>  <SCORE.INTRA.SOLV>
-0.0200318

>  <SCORE.INTRA.SOLV.lig_0>
-11.4332

>  <SCORE.INTRA.VDW>
0.617236

>  <SCORE.INTRA.VDW.0>
-0.708663

>  <SCORE.INTRA.norm>
0.0747345

>  <SCORE.RESTR>
0

>  <SCORE.RESTR.CAVITY>
0

>  <SCORE.RESTR.norm>
0

>  <SCORE.SYSTEM>
-17.7432

>  <SCORE.SYSTEM.CONST>
0

>  <SCORE.SYSTEM.DIHEDRAL>
5.45985

>  <SCORE.SYSTEM.POLAR>
-2.47394

>  <SCORE.SYSTEM.SOLV>
-0.013739

>  <SCORE.SYSTEM.VDW>
-5.39771

>  <SCORE.SYSTEM.norm>
-1.61302

>  <SCORE.heavy>
11

>  <SCORE.norm>
-4.60321

$$$$
P107707251
 OpenBabel12072022113D
libRbt.so/2013.1/901 2013/11/27
 13 13  0  0  0  0  0  0  0  0999 V2000
  -31.6166   17.8615  -13.4563 C   0  0  0  0  0  0  0  0  0  0  0  0
  -30.5970   17.6852  -14.5731 C   0  0  2  0  0  0  0  0  0  0  0  0
  -31.0123   18.4563  -15.8249 C   0  0  0  0  0  0  0  0  0  0  0  0
  -30.0316   18.1765  -16.9637 C   0  0  1  0  0  0  0  0  0  0  0  0
  -29.8627   16.6708  -17.1685 C   0  0  0  0  0  0  0  0  0  0  0  0
  -29.5186   15.9958  -15.8516 C   0  0  0  0  0  0  0  0  0  0  0  0
  -30.5066   16.2889  -14.8664 O   0  0  0  0  0  0  0  0  0  0  0  0
  -30.5448   18.9523  -18.5010 S   0  0  0  0  0  0  0  0  0  0  0  0
  -30.6341   20.3809  -18.3086 O   0  0  0  0  0  0  0  0  0  0  0  0
  -29.8425   18.3687  -19.6186 O   0  0  0  0  0  0  0  0  0  0  0  0
  -32.1327   18.4372  -18.6527 N   0  0  0  0  0  0  0  0  0  0  0  0
  -32.6961   19.1752  -19.0802 H   0  0  0  0  0  0  0  0  0  0  0  0
  -32.1626   17.5585  -19.1746 H   0  0  0  0  0  0  0  0  0  0  0  0
  2  3  1  0  0  0  0
  2  7  1  0  0  0  0
  2  1  1  1  0  0  0
  3  4  1  0  0  0  0
  4  5  1  0  0  0  0
  4  8  1  6  0  0  0
  5  6  1  0  0  0  0
  6  7  1  0  0  0  0
  8  9  2  0  0  0  0
  8 10  2  0  0  0  0
  8 11  1  0  0  0  0
 11 12  1  0  0  0  0
 11 13  1  0  0  0  0
M  END
>  <CHROM.0>
-57.00895888,-62.47403835,-62.19846310,-42.78087026,-57.97713910,-58.92028274
-68.29112739,-60.53917687,-169.79157166

>  <CHROM.1>
59.49879262,145.14390559,-30.59126478,18.05451070,-16.93685747,1.59250673
-1.01722293,2.02187236

>  <Name>
P107707251

>  <RI>
0

>  <Rbt.Current_Directory>
/home/fstefaniak/projects/zuza/docking/adenine/4TZX

>  <Rbt.Executable>
rbdock ($Id: //depot/dev/client3/rdock/2013.1/src/exe/rbdock.cxx#4 $)

>  <Rbt.Library>
libRbt.so (2013.1, Build901 2013/11/27)

>  <Rbt.Parameter_File>
/home/fstefaniak/progs/rDock//data/scripts/dock_solv.prm

>  <Rbt.Receptor>
4tzx.prm

>  <SCORE>
-50.26

>  <SCORE.INTER>
-28.961

>  <SCORE.INTER.CONST>
1

>  <SCORE.INTER.POLAR>
-2.92094

>  <SCORE.INTER.ROT>
2

>  <SCORE.INTER.SOLV>
13.5735

>  <SCORE.INTER.VDW>
-19.0287

>  <SCORE.INTER.norm>
-2.63282

>  <SCORE.INTRA>
-0.283985

>  <SCORE.INTRA.DIHEDRAL>
-0.891032

>  <SCORE.INTRA.DIHEDRAL.0>
2.50279

>  <SCORE.INTRA.POLAR>
0

>  <SCORE.INTRA.POLAR.0>
0

>  <SCORE.INTRA.REPUL>
0

>  <SCORE.INTRA.REPUL.0>
0

>  <SCORE.INTRA.SOLV>
0.174191

>  <SCORE.INTRA.SOLV.lig_0>
-11.4332

>  <SCORE.INTRA.VDW>
0.0744352

>  <SCORE.INTRA.VDW.0>
-0.708663

>  <SCORE.INTRA.norm>
-0.0258168

>  <SCORE.RESTR>
0

>  <SCORE.RESTR.CAVITY>
0

>  <SCORE.RESTR.norm>
0

>  <SCORE.SYSTEM>
-21.015

>  <SCORE.SYSTEM.CONST>
0

>  <SCORE.SYSTEM.DIHEDRAL>
4.34045

>  <SCORE.SYSTEM.POLAR>
-3.06126

>  <SCORE.SYSTEM.SOLV>
0.197785

>  <SCORE.SYSTEM.VDW>
-5.31856

>  <SCORE.SYSTEM.norm>
-1.91046

>  <SCORE.heavy>
11

>  <SCORE.norm>
-4.56909

$$$$
P107730030
 OpenBabel12072022113D
libRbt.so/2013.1/901 2013/11/27
 17 17  0  0  0  0  0  0  0  0999 V2000
  -25.7068   16.7195  -15.7928 C   0  0  0  0  0  0  0  0  0  0  0  0
  -26.8698   15.9918  -16.4706 C   0  0  0  0  0  0  0  0  0  0  0  0
  -28.1949   16.5876  -15.9761 C   0  0  0  0  0  0  0  0  0  0  0  0
  -26.8349   14.4616  -16.2377 C   0  0  2  0  0  0  0  0  0  0  0  0
  -25.4649   13.8437  -16.5535 C   0  0  0  0  0  0  0  0  0  0  0  0
  -25.5008   12.3115  -16.4072 C   0  0  2  0  0  0  0  0  0  0  0  0
  -26.6865   11.7230  -17.1831 C   0  0  0  0  0  0  0  0  0  0  0  0
  -27.9771   12.4703  -16.8702 C   0  0  0  0  0  0  0  0  0  0  0  0
  -27.8104   13.8661  -17.1062 O   0  0  0  0  0  0  0  0  0  0  0  0
  -25.5662   11.9181  -14.9003 C   0  0  0  0  0  0  0  0  0  0  0  0
  -24.7589   11.1964  -14.3267 O   0  0  0  0  0  0  0  0  0  0  0  0
  -26.6310   12.4525  -14.2248 N   0  0  0  0  0  0  0  0  0  0  0  0
  -24.2190   11.7545  -16.9330 N   0  0  0  0  0  0  0  0  0  0  0  0
  -26.5119   12.5676  -13.2229 H   0  0  0  0  0  0  0  0  0  0  0  0
  -27.5503   12.2132  -14.5693 H   0  0  0  0  0  0  0  0  0  0  0  0
  -24.1605   11.9592  -17.9319 H   0  0  0  0  0  0  0  0  0  0  0  0
  -24.2642   10.7350  -16.8709 H   0  0  0  0  0  0  0  0  0  0  0  0
  1  2  1  0  0  0  0
  2  3  1  0  0  0  0
  4  5  1  0  0  0  0
  4  9  1  0  0  0  0
  4  2  1  6  0  0  0
  5  6  1  0  0  0  0
  6  7  1  0  0  0  0
  6 10  1  1  0  0  0
  6 13  1  0  0  0  0
  7  8  1  0  0  0  0
  8  9  1  0  0  0  0
 10 11  2  0  0  0  0
 10 12  1  0  0  0  0
 12 14  1  0  0  0  0
 12 15  1  0  0  0  0
 13 16  1  0  0  0  0
 13 17  1  0  0  0  0
M  END
>  <CHROM.0>
-59.30191588,-172.32155402,-71.69256149,-40.89517946,59.65066146,-59.30395278
-170.35686848,58.98994871,-169.41182374

>  <CHROM.1>
-50.15478252,-122.91550569,-63.92017585,-154.58233872,-26.32703022,13.47457601
-16.06285107,-2.07055608,0.62480139,-2.97087902

>  <Name>
P107730030

>  <RI>
0

>  <Rbt.Current_Directory>
/home/fstefaniak/projects/zuza/docking/adenine/4TZX

>  <Rbt.Executable>
rbdock ($Id: //depot/dev/client3/rdock/2013.1/src/exe/rbdock.cxx#4 $)

>  <Rbt.Library>
libRbt.so (2013.1, Build901 2013/11/27)

>  <Rbt.Parameter_File>
/home/fstefaniak/progs/rDock//data/scripts/dock_solv.prm

>  <Rbt.Receptor>
4tzx.prm

>  <SCORE>
-35.2068

>  <SCORE.INTER>
-18.9407

>  <SCORE.INTER.CONST>
1

>  <SCORE.INTER.POLAR>
-2.724

>  <SCORE.INTER.ROT>
4

>  <SCORE.INTER.SOLV>
7.2232

>  <SCORE.INTER.VDW>
-12.2215

>  <SCORE.INTER.norm>
-1.45698

>  <SCORE.INTRA>
1.79759

>  <SCORE.INTRA.DIHEDRAL>
0.292782

>  <SCORE.INTRA.DIHEDRAL.0>
0.892037

>  <SCORE.INTRA.POLAR>
0.0386943

>  <SCORE.INTRA.POLAR.0>
-0.0386943

>  <SCORE.INTRA.REPUL>
0

>  <SCORE.INTRA.REPUL.0>
0

>  <SCORE.INTRA.SOLV>
0.242931

>  <SCORE.INTRA.SOLV.lig_0>
-11.4209

>  <SCORE.INTRA.VDW>
1.39818

>  <SCORE.INTRA.VDW.0>
0.561936

>  <SCORE.INTRA.norm>
0.138276

>  <SCORE.RESTR>
0.462772

>  <SCORE.RESTR.CAVITY>
0.462772

>  <SCORE.RESTR.norm>
0.0355978

>  <SCORE.SYSTEM>
-18.5264

>  <SCORE.SYSTEM.CONST>
0

>  <SCORE.SYSTEM.DIHEDRAL>
5.5409

>  <SCORE.SYSTEM.POLAR>
-3.05323

>  <SCORE.SYSTEM.SOLV>
-0.253104

>  <SCORE.SYSTEM.VDW>
-3.93611

>  <SCORE.SYSTEM.norm>
-1.42511

>  <SCORE.heavy>
13

>  <SCORE.norm>
-2.70821

$$$$
P107730030
 OpenBabel12072022113D
libRbt.so/2013.1/901 2013/11/27
 17 17  0  0  0  0  0  0  0  0999 V2000
  -29.9984   17.6421  -17.2793 C   0  0  0  0  0  0  0  0  0  0  0  0
  -29.7274   16.5428  -16.2499 C   0  0  0  0  0  0  0  0  0  0  0  0
  -29.3777   17.1883  -14.9022 C   0  0  0  0  0  0  0  0  0  0  0  0
  -28.6119   15.5667  -16.6970 C   0  0  2  0  0  0  0  0  0  0  0  0
  -28.7019   14.2016  -15.9991 C   0  0  0  0  0  0  0  0  0  0  0  0
  -27.5194   13.2982  -16.3936 C   0  0  2  0  0  0  0  0  0  0  0  0
  -26.1895   14.0435  -16.2199 C   0  0  0  0  0  0  0  0  0  0  0  0
  -26.2409   15.4231  -16.8648 C   0  0  0  0  0  0  0  0  0  0  0  0
  -27.3503   16.1635  -16.3616 O   0  0  0  0  0  0  0  0  0  0  0  0
  -27.6936   12.7965  -17.8591 C   0  0  0  0  0  0  0  0  0  0  0  0
  -28.1034   13.4783  -18.7912 O   0  0  0  0  0  0  0  0  0  0  0  0
  -27.3453   11.4859  -18.0506 N   0  0  0  0  0  0  0  0  0  0  0  0
  -27.5410   12.0827  -15.5266 N   0  0  0  0  0  0  0  0  0  0  0  0
  -26.4636   11.3233  -18.5274 H   0  0  0  0  0  0  0  0  0  0  0  0
  -28.1022   10.8374  -18.2176 H   0  0  0  0  0  0  0  0  0  0  0  0
  -27.7191   11.2666  -16.1144 H   0  0  0  0  0  0  0  0  0  0  0  0
  -28.3506   12.1472  -14.9057 H   0  0  0  0  0  0  0  0  0  0  0  0
  1  2  1  0  0  0  0
  2  3  1  0  0  0  0
  4  5  1  0  0  0  0
  4  9  1  0  0  0  0
  4  2  1  1  0  0  0
  5  6  1  0  0  0  0
  6  7  1  0  0  0  0
  6 10  1  6  0  0  0
  6 13  1  0  0  0  0
  7  8  1  0  0  0  0
  8  9  1  0  0  0  0
 10 11  2  0  0  0  0
 10 12  1  0  0  0  0
 12 14  1  0  0  0  0
 12 15  1  0  0  0  0
 13 16  1  0  0  0  0
 13 17  1  0  0  0  0
M  END
>  <CHROM.0>
-62.79914532,-47.68113746,-65.80313047,-43.97082491,-60.85269341,57.86370535
-68.81566873,-174.49868972,-169.15296534

>  <CHROM.1>
-157.26306295,40.41467013,115.09108052,-105.23825926,-28.03127173,14.59273177
-16.71755493,2.18911628,-0.87194176,0.73258913

>  <Name>
P107730030

>  <RI>
0

>  <Rbt.Current_Directory>
/home/fstefaniak/projects/zuza/docking/adenine/4TZX

>  <Rbt.Executable>
rbdock ($Id: //depot/dev/client3/rdock/2013.1/src/exe/rbdock.cxx#4 $)

>  <Rbt.Library>
libRbt.so (2013.1, Build901 2013/11/27)

>  <Rbt.Parameter_File>
/home/fstefaniak/progs/rDock//data/scripts/dock_solv.prm

>  <Rbt.Receptor>
4tzx.prm

>  <SCORE>
-34.4643

>  <SCORE.INTER>
-18.927

>  <SCORE.INTER.CONST>
1

>  <SCORE.INTER.POLAR>
-1.9439

>  <SCORE.INTER.ROT>
4

>  <SCORE.INTER.SOLV>
9.83388

>  <SCORE.INTER.VDW>
-15.683

>  <SCORE.INTER.norm>
-1.45592

>  <SCORE.INTRA>
3.87254

>  <SCORE.INTRA.DIHEDRAL>
6.48893

>  <SCORE.INTRA.DIHEDRAL.0>
0.892037

>  <SCORE.INTRA.POLAR>
-0.28394

>  <SCORE.INTRA.POLAR.0>
-0.0386943

>  <SCORE.INTRA.REPUL>
0

>  <SCORE.INTRA.REPUL.0>
0

>  <SCORE.INTRA.SOLV>
0.278466

>  <SCORE.INTRA.SOLV.lig_0>
-11.4209

>  <SCORE.INTRA.VDW>
1.45424

>  <SCORE.INTRA.VDW.0>
0.561936

>  <SCORE.INTRA.norm>
0.297888

>  <SCORE.RESTR>
0.0661921

>  <SCORE.RESTR.CAVITY>
0.0661921

>  <SCORE.RESTR.norm>
0.0050917

>  <SCORE.SYSTEM>
-19.4761

>  <SCORE.SYSTEM.CONST>
0

>  <SCORE.SYSTEM.DIHEDRAL>
5.21004

>  <SCORE.SYSTEM.POLAR>
-3.0109

>  <SCORE.SYSTEM.SOLV>
-0.0631611

>  <SCORE.SYSTEM.VDW>
-4.66334

>  <SCORE.SYSTEM.norm>
-1.49816

>  <SCORE.heavy>
13

>  <SCORE.norm>
-2.6511

$$$$
P107730030
 OpenBabel12072022113D
libRbt.so/2013.1/901 2013/11/27
 17 17  0  0  0  0  0  0  0  0999 V2000
  -25.7603   16.7092  -15.7705 C   0  0  0  0  0  0  0  0  0  0  0  0
  -26.8872   15.9599  -16.4848 C   0  0  0  0  0  0  0  0  0  0  0  0
  -28.2340   16.5860  -16.0981 C   0  0  0  0  0  0  0  0  0  0  0  0
  -26.8808   14.4414  -16.1829 C   0  0  2  0  0  0  0  0  0  0  0  0
  -25.4932   13.8068  -16.3570 C   0  0  0  0  0  0  0  0  0  0  0  0
  -25.5502   12.2827  -16.1473 C   0  0  2  0  0  0  0  0  0  0  0  0
  -26.6715   11.6634  -16.9920 C   0  0  0  0  0  0  0  0  0  0  0  0
  -27.9790   12.4268  -16.8199 C   0  0  0  0  0  0  0  0  0  0  0  0
  -27.7849   13.8105  -17.1022 O   0  0  0  0  0  0  0  0  0  0  0  0
  -25.7421   11.9564  -14.6351 C   0  0  0  0  0  0  0  0  0  0  0  0
  -26.6144   11.2268  -14.1789 O   0  0  0  0  0  0  0  0  0  0  0  0
  -24.8345   12.5638  -13.8087 N   0  0  0  0  0  0  0  0  0  0  0  0
  -24.2329   11.7000  -16.5404 N   0  0  0  0  0  0  0  0  0  0  0  0
  -25.1445   12.7400  -12.8579 H   0  0  0  0  0  0  0  0  0  0  0  0
  -24.2120   13.2346  -14.2372 H   0  0  0  0  0  0  0  0  0  0  0  0
  -23.4934   12.2079  -16.0522 H   0  0  0  0  0  0  0  0  0  0  0  0
  -24.0808   11.8940  -17.5326 H   0  0  0  0  0  0  0  0  0  0  0  0
  1  2  1  0  0  0  0
  2  3  1  0  0  0  0
  4  5  1  0  0  0  0
  4  9  1  0  0  0  0
  4  2  1  6  0  0  0
  5  6  1  0  0  0  0
  6  7  1  0  0  0  0
  6 10  1  1  0  0  0
  6 13  1  0  0  0  0
  7  8  1  0  0  0  0
  8  9  1  0  0  0  0
 10 11  2  0  0  0  0
 10 12  1  0  0  0  0
 12 14  1  0  0  0  0
 12 15  1  0  0  0  0
 13 16  1  0  0  0  0
 13 17  1  0  0  0  0
M  END
>  <CHROM.0>
-59.51542482,-60.35168290,-71.68325964,-40.44333398,-58.33032305,-62.52024479
-170.20610467,-58.73831963,-168.67748179

>  <CHROM.1>
-48.86182596,127.60214713,51.83652471,152.89189061,-26.34768943,13.47623262
-15.91701471,-2.02058758,0.64850043,-3.08529421

>  <Name>
P107730030

>  <RI>
0

>  <Rbt.Current_Directory>
/home/fstefaniak/projects/zuza/docking/adenine/4TZX

>  <Rbt.Executable>
rbdock ($Id: //depot/dev/client3/rdock/2013.1/src/exe/rbdock.cxx#4 $)

>  <Rbt.Library>
libRbt.so (2013.1, Build901 2013/11/27)

>  <Rbt.Parameter_File>
/home/fstefaniak/progs/rDock//data/scripts/dock_solv.prm

>  <Rbt.Receptor>
4tzx.prm

>  <SCORE>
-34.3399

>  <SCORE.INTER>
-15.4364

>  <SCORE.INTER.CONST>
1

>  <SCORE.INTER.POLAR>
-1.72323

>  <SCORE.INTER.ROT>
4

>  <SCORE.INTER.SOLV>
7.29939

>  <SCORE.INTER.VDW>
-13.2466

>  <SCORE.INTER.norm>
-1.18742

>  <SCORE.INTRA>
1.14867

>  <SCORE.INTRA.DIHEDRAL>
0.467153

>  <SCORE.INTRA.DIHEDRAL.0>
0.892037

>  <SCORE.INTRA.POLAR>
0.0386943

>  <SCORE.INTRA.POLAR.0>
-0.0386943

>  <SCORE.INTRA.REPUL>
0

>  <SCORE.INTRA.REPUL.0>
0

>  <SCORE.INTRA.SOLV>
-0.0204198

>  <SCORE.INTRA.SOLV.lig_0>
-11.4209

>  <SCORE.INTRA.VDW>
0.793747

>  <SCORE.INTRA.VDW.0>
0.561936

>  <SCORE.INTRA.norm>
0.0883596

>  <SCORE.RESTR>
0.420415

>  <SCORE.RESTR.CAVITY>
0.420415

>  <SCORE.RESTR.norm>
0.0323396

>  <SCORE.SYSTEM>
-20.4726

>  <SCORE.SYSTEM.CONST>
0

>  <SCORE.SYSTEM.DIHEDRAL>
5.45177

>  <SCORE.SYSTEM.POLAR>
-3.07271

>  <SCORE.SYSTEM.SOLV>
0.164621

>  <SCORE.SYSTEM.VDW>
-5.27818

>  <SCORE.SYSTEM.norm>
-1.57482

>  <SCORE.heavy>
13

>  <SCORE.norm>
-2.64153

$$$$
P107730079
 OpenBabel12072022113D
libRbt.so/2013.1/901 2013/11/27
 16 16  0  0  0  0  0  0  0  0999 V2000
  -27.6656   15.0838  -16.0307 C   0  0  0  0  0  0  0  0  0  0  0  0
  -26.3464   14.6064  -16.6561 C   0  0  0  0  0  0  0  0  0  0  0  0
  -25.4750   13.7721  -15.6916 C   0  0  0  0  0  0  0  0  0  0  0  0
  -25.9388   12.3072  -15.4939 C   0  0  1  0  0  0  0  0  0  0  0  0
  -26.2178   11.7140  -16.8888 C   0  0  0  0  0  0  0  0  0  0  0  0
  -27.1523   12.5920  -17.6992 C   0  0  0  0  0  0  0  0  0  0  0  0
  -26.5932   13.8914  -17.8730 O   0  0  0  0  0  0  0  0  0  0  0  0
  -24.7816   11.5056  -14.8164 C   0  0  0  0  0  0  0  0  0  0  0  0
  -23.9814   10.7970  -15.4201 O   0  0  0  0  0  0  0  0  0  0  0  0
  -24.7177   11.5761  -13.4492 N   0  0  0  0  0  0  0  0  0  0  0  0
  -27.1153   12.3011  -14.5761 N   0  0  0  0  0  0  0  0  0  0  0  0
  -27.7596   10.9999  -14.4273 C   0  0  0  0  0  0  0  0  0  0  0  0
  -25.5527   15.8586  -17.0692 C   0  0  0  0  0  0  0  0  0  0  0  0
  -23.9410   11.0981  -13.0100 H   0  0  0  0  0  0  0  0  0  0  0  0
  -25.2133   12.2710  -12.9115 H   0  0  0  0  0  0  0  0  0  0  0  0
  -26.8085   12.6061  -13.6526 H   0  0  0  0  0  0  0  0  0  0  0  0
  1  2  1  0  0  0  0
  2  3  1  0  0  0  0
  2  7  1  0  0  0  0
  2 13  1  0  0  0  0
  3  4  1  0  0  0  0
  4  5  1  0  0  0  0
  4 11  1  0  0  0  0
  4  8  1  1  0  0  0
  5  6  1  0  0  0  0
  6  7  1  0  0  0  0
  8  9  2  0  0  0  0
  8 10  1  0  0  0  0
 10 14  1  0  0  0  0
 10 15  1  0  0  0  0
 11 12  1  0  0  0  0
 11 16  1  0  0  0  0
M  END
>  <CHROM.0>
-59.69645835,-58.50410972,-66.65047033,-43.54754016,-172.72666094,-55.31344327
-67.06006706,59.35661018,-168.76266742

>  <CHROM.1>
172.93400241,-97.91309726,-26.09780528,12.84193870,-15.83343787,1.85252066
-0.09868314,-0.60643262

>  <Name>
P107730079

>  <RI>
0

>  <Rbt.Current_Directory>
/home/fstefaniak/projects/zuza/docking/adenine/4TZX

>  <Rbt.Executable>
rbdock ($Id: //depot/dev/client3/rdock/2013.1/src/exe/rbdock.cxx#4 $)

>  <Rbt.Library>
libRbt.so (2013.1, Build901 2013/11/27)

>  <Rbt.Parameter_File>
/home/fstefaniak/progs/rDock//data/scripts/dock_solv.prm

>  <Rbt.Receptor>
4tzx.prm

>  <SCORE>
-35.3715

>  <SCORE.INTER>
-17.0625

>  <SCORE.INTER.CONST>
1

>  <SCORE.INTER.POLAR>
-2.43131

>  <SCORE.INTER.ROT>
2

>  <SCORE.INTER.SOLV>
7.59439

>  <SCORE.INTER.VDW>
-10.7354

>  <SCORE.INTER.norm>
-1.3125

>  <SCORE.INTRA>
1.45414

>  <SCORE.INTRA.DIHEDRAL>
0.858796

>  <SCORE.INTRA.DIHEDRAL.0>
0.368379

>  <SCORE.INTRA.POLAR>
0

>  <SCORE.INTRA.POLAR.0>
0

>  <SCORE.INTRA.REPUL>
0

>  <SCORE.INTRA.REPUL.0>
0

>  <SCORE.INTRA.SOLV>
0.105407

>  <SCORE.INTRA.SOLV.lig_0>
-11.149

>  <SCORE.INTRA.VDW>
0.972038

>  <SCORE.INTRA.VDW.0>
1.06419

>  <SCORE.INTRA.norm>
0.111857

>  <SCORE.RESTR>
0.491805

>  <SCORE.RESTR.CAVITY>
0.491805

>  <SCORE.RESTR.norm>
0.0378311

>  <SCORE.SYSTEM>
-20.2549

>  <SCORE.SYSTEM.CONST>
0

>  <SCORE.SYSTEM.DIHEDRAL>
4.67501

>  <SCORE.SYSTEM.POLAR>
-3.05785

>  <SCORE.SYSTEM.SOLV>
-0.160738

>  <SCORE.SYSTEM.VDW>
-4.81522

>  <SCORE.SYSTEM.norm>
-1.55807

>  <SCORE.heavy>
13

>  <SCORE.norm>
-2.72088

$$$$
P107730079
 OpenBabel12072022113D
libRbt.so/2013.1/901 2013/11/27
 16 16  0  0  0  0  0  0  0  0999 V2000
  -27.6597   15.0360  -16.0153 C   0  0  0  0  0  0  0  0  0  0  0  0
  -26.3225   14.5885  -16.6245 C   0  0  0  0  0  0  0  0  0  0  0  0
  -25.4375   13.7876  -15.6442 C   0  0  0  0  0  0  0  0  0  0  0  0
  -25.8632   12.3126  -15.4360 C   0  0  1  0  0  0  0  0  0  0  0  0
  -26.1136   11.6986  -16.8272 C   0  0  0  0  0  0  0  0  0  0  0  0
  -27.0642   12.5429  -17.6544 C   0  0  0  0  0  0  0  0  0  0  0  0
  -26.5390   13.8553  -17.8363 O   0  0  0  0  0  0  0  0  0  0  0  0
  -24.6908   11.5494  -14.7405 C   0  0  0  0  0  0  0  0  0  0  0  0
  -23.8702   10.8517  -15.3294 O   0  0  0  0  0  0  0  0  0  0  0  0
  -24.6364   11.6414  -13.3743 N   0  0  0  0  0  0  0  0  0  0  0  0
  -27.0472   12.2835  -14.5284 N   0  0  0  0  0  0  0  0  0  0  0  0
  -27.6518   10.9651  -14.3651 C   0  0  0  0  0  0  0  0  0  0  0  0
  -25.5594   15.8578  -17.0432 C   0  0  0  0  0  0  0  0  0  0  0  0
  -23.8509   11.1889  -12.9239 H   0  0  0  0  0  0  0  0  0  0  0  0
  -25.1518   12.3318  -12.8495 H   0  0  0  0  0  0  0  0  0  0  0  0
  -26.7586   12.6120  -13.6071 H   0  0  0  0  0  0  0  0  0  0  0  0
  1  2  1  0  0  0  0
  2  3  1  0  0  0  0
  2  7  1  0  0  0  0
  2 13  1  0  0  0  0
  3  4  1  0  0  0  0
  4  5  1  0  0  0  0
  4 11  1  0  0  0  0
  4  8  1  1  0  0  0
  5  6  1  0  0  0  0
  6  7  1  0  0  0  0
  8  9  2  0  0  0  0
  8 10  1  0  0  0  0
 10 14  1  0  0  0  0
 10 15  1  0  0  0  0
 11 12  1  0  0  0  0
 11 16  1  0  0  0  0
M  END
>  <CHROM.0>
-60.88878577,-176.21589576,-71.26518666,47.99490259,179.40618441,-63.24422522
-171.86545986,-56.53993382,-168.56092230

>  <CHROM.1>
173.33109463,-98.28596862,-26.03307160,12.83958177,-15.78161012,1.86986449
-0.12333311,-0.61386717

>  <Name>
P107730079

>  <RI>
0

>  <Rbt.Current_Directory>
/home/fstefaniak/projects/zuza/docking/adenine/4TZX

>  <Rbt.Executable>
rbdock ($Id: //depot/dev/client3/rdock/2013.1/src/exe/rbdock.cxx#4 $)

>  <Rbt.Library>
libRbt.so (2013.1, Build901 2013/11/27)

>  <Rbt.Parameter_File>
/home/fstefaniak/progs/rDock//data/scripts/dock_solv.prm

>  <Rbt.Receptor>
4tzx.prm

>  <SCORE>
-32.3118

>  <SCORE.INTER>
-16.5453

>  <SCORE.INTER.CONST>
1

>  <SCORE.INTER.POLAR>
-2.44139

>  <SCORE.INTER.ROT>
2

>  <SCORE.INTER.SOLV>
7.61896

>  <SCORE.INTER.VDW>
-10.3652

>  <SCORE.INTER.norm>
-1.27272

>  <SCORE.INTRA>
1.35484

>  <SCORE.INTRA.DIHEDRAL>
0.820986

>  <SCORE.INTRA.DIHEDRAL.0>
0.368379

>  <SCORE.INTRA.POLAR>
0

>  <SCORE.INTRA.POLAR.0>
0

>  <SCORE.INTRA.REPUL>
0

>  <SCORE.INTRA.REPUL.0>
0

>  <SCORE.INTRA.SOLV>
0.104957

>  <SCORE.INTRA.SOLV.lig_0>
-11.149

>  <SCORE.INTRA.VDW>
0.891865

>  <SCORE.INTRA.VDW.0>
1.06419

>  <SCORE.INTRA.norm>
0.104218

>  <SCORE.RESTR>
0.439017

>  <SCORE.RESTR.CAVITY>
0.439017

>  <SCORE.RESTR.norm>
0.0337705

>  <SCORE.SYSTEM>
-17.5603

>  <SCORE.SYSTEM.CONST>
0

>  <SCORE.SYSTEM.DIHEDRAL>
4.40424

>  <SCORE.SYSTEM.POLAR>
-2.46705

>  <SCORE.SYSTEM.SOLV>
-0.106594

>  <SCORE.SYSTEM.VDW>
-4.91589

>  <SCORE.SYSTEM.norm>
-1.35079

>  <SCORE.heavy>
13

>  <SCORE.norm>
-2.48552

$$$$
P107730079
 OpenBabel12072022113D
libRbt.so/2013.1/901 2013/11/27
 16 16  0  0  0  0  0  0  0  0999 V2000
  -24.5994   11.1828  -16.2982 C   0  0  0  0  0  0  0  0  0  0  0  0
  -24.9923   12.1174  -15.1443 C   0  0  0  0  0  0  0  0  0  0  0  0
  -25.1818   13.5869  -15.5804 C   0  0  0  0  0  0  0  0  0  0  0  0
  -26.5167   13.8853  -16.3078 C   0  0  1  0  0  0  0  0  0  0  0  0
  -27.6497   13.2385  -15.4874 C   0  0  0  0  0  0  0  0  0  0  0  0
  -27.3745   11.7747  -15.2004 C   0  0  0  0  0  0  0  0  0  0  0  0
  -26.1587   11.6275  -14.4715 O   0  0  0  0  0  0  0  0  0  0  0  0
  -26.7281   15.4327  -16.3457 C   0  0  0  0  0  0  0  0  0  0  0  0
  -27.8171   15.9879  -16.2328 O   0  0  0  0  0  0  0  0  0  0  0  0
  -25.6094   16.1898  -16.5773 N   0  0  0  0  0  0  0  0  0  0  0  0
  -26.4137   13.3903  -17.7117 N   0  0  0  0  0  0  0  0  0  0  0  0
  -27.6955   13.0970  -18.3452 C   0  0  0  0  0  0  0  0  0  0  0  0
  -23.8623   12.0612  -14.1009 C   0  0  0  0  0  0  0  0  0  0  0  0
  -25.7333   17.1941  -16.5544 H   0  0  0  0  0  0  0  0  0  0  0  0
  -24.6726   15.8246  -16.4952 H   0  0  0  0  0  0  0  0  0  0  0  0
  -25.9421   14.0995  -18.2725 H   0  0  0  0  0  0  0  0  0  0  0  0
  1  2  1  0  0  0  0
  2  3  1  0  0  0  0
  2  7  1  0  0  0  0
  2 13  1  0  0  0  0
  3  4  1  0  0  0  0
  4  5  1  0  0  0  0
  4 11  1  0  0  0  0
  4  8  1  6  0  0  0
  5  6  1  0  0  0  0
  6  7  1  0  0  0  0
  8  9  2  0  0  0  0
  8 10  1  0  0  0  0
 10 14  1  0  0  0  0
 10 15  1  0  0  0  0
 11 12  1  0  0  0  0
 11 16  1  0  0  0  0
M  END
>  <CHROM.0>
-59.36130534,-177.56682504,-70.19210554,-43.12128819,-58.02640714,-60.03279064
-66.03576172,59.85256887,-168.78843473

>  <CHROM.1>
156.28359585,-143.46528503,-26.19518585,13.36422247,-15.99542914,1.00226507
0.62692171,3.02078046

>  <Name>
P107730079

>  <RI>
0

>  <Rbt.Current_Directory>
/home/fstefaniak/projects/zuza/docking/adenine/4TZX

>  <Rbt.Executable>
rbdock ($Id: //depot/dev/client3/rdock/2013.1/src/exe/rbdock.cxx#4 $)

>  <Rbt.Library>
libRbt.so (2013.1, Build901 2013/11/27)

>  <Rbt.Parameter_File>
/home/fstefaniak/progs/rDock//data/scripts/dock_solv.prm

>  <Rbt.Receptor>
4tzx.prm

>  <SCORE>
-32.27

>  <SCORE.INTER>
-15.3056

>  <SCORE.INTER.CONST>
1

>  <SCORE.INTER.POLAR>
-2.30705

>  <SCORE.INTER.ROT>
2

>  <SCORE.INTER.SOLV>
9.08902

>  <SCORE.INTER.VDW>
-10.4766

>  <SCORE.INTER.norm>
-1.17735

>  <SCORE.INTRA>
2.90644

>  <SCORE.INTRA.DIHEDRAL>
1.91387

>  <SCORE.INTRA.DIHEDRAL.0>
0.368379

>  <SCORE.INTRA.POLAR>
0

>  <SCORE.INTRA.POLAR.0>
0

>  <SCORE.INTRA.REPUL>
0

>  <SCORE.INTRA.REPUL.0>
0

>  <SCORE.INTRA.SOLV>
-0.104066

>  <SCORE.INTRA.SOLV.lig_0>
-11.149

>  <SCORE.INTRA.VDW>
2.00154

>  <SCORE.INTRA.VDW.0>
1.06419

>  <SCORE.INTRA.norm>
0.223572

>  <SCORE.RESTR>
0.191745

>  <SCORE.RESTR.CAVITY>
0.191745

>  <SCORE.RESTR.norm>
0.0147496

>  <SCORE.SYSTEM>
-20.0627

>  <SCORE.SYSTEM.CONST>
0

>  <SCORE.SYSTEM.DIHEDRAL>
4.63407

>  <SCORE.SYSTEM.POLAR>
-3.04288

>  <SCORE.SYSTEM.SOLV>
-0.012856

>  <SCORE.SYSTEM.VDW>
-4.77259

>  <SCORE.SYSTEM.norm>
-1.54328

>  <SCORE.heavy>
13

>  <SCORE.norm>
-2.48231

$$$$
P107841297
 OpenBabel12072022113D
libRbt.so/2013.1/901 2013/11/27
 10 10  0  0  0  0  0  0  0  0999 V2000
  -28.7380   14.8849  -16.2131 C   0  0  0  0  0  0  0  0  0  0  0  0
  -28.4808   16.3809  -16.1723 C   0  0  0  0  0  0  0  0  0  0  0  0
  -29.6552   17.1436  -16.5495 N   0  0  0  0  0  0  0  0  0  0  0  0
  -29.8815   17.6185  -17.8911 C   0  0  0  0  0  0  0  0  0  0  0  0
  -31.0387   18.6022  -17.7431 C   0  0  1  0  0  0  0  0  0  0  0  0
  -31.7836   18.1320  -16.4986 C   0  0  0  0  0  0  0  0  0  0  0  0
  -30.7208   17.4112  -15.7056 C   0  0  0  0  0  0  0  0  0  0  0  0
  -30.8282   17.0625  -14.5407 O   0  0  0  0  0  0  0  0  0  0  0  0
  -30.5658   19.9338  -17.5294 O   0  0  0  0  0  0  0  0  0  0  0  0
  -31.3374   20.5206  -17.4518 H   0  0  0  0  0  0  0  0  0  0  0  0
  1  2  1  0  0  0  0
  2  3  1  0  0  0  0
  3  4  1  0  0  0  0
  3  7  1  0  0  0  0
  4  5  1  0  0  0  0
  5  6  1  0  0  0  0
  5  9  1  1  0  0  0
  6  7  1  0  0  0  0
  7  8  2  0  0  0  0
  9 10  1  0  0  0  0
M  END
>  <CHROM.0>
-61.11310256,-62.39651103,-65.89644033,-43.51034740,-177.82142292,-63.89644887
-67.17023058,-59.60414729,-169.20672035

>  <CHROM.1>
-95.16806060,179.37185918,-30.18638970,17.49060271,-16.53096381,-0.91171965
0.71970190,-0.87533960

>  <Name>
P107841297

>  <RI>
0

>  <Rbt.Current_Directory>
/home/fstefaniak/projects/zuza/docking/adenine/4TZX

>  <Rbt.Executable>
rbdock ($Id: //depot/dev/client3/rdock/2013.1/src/exe/rbdock.cxx#4 $)

>  <Rbt.Library>
libRbt.so (2013.1, Build901 2013/11/27)

>  <Rbt.Parameter_File>
/home/fstefaniak/progs/rDock//data/scripts/dock_solv.prm

>  <Rbt.Receptor>
4tzx.prm

>  <SCORE>
-44.2105

>  <SCORE.INTER>
-23.1752

>  <SCORE.INTER.CONST>
1

>  <SCORE.INTER.POLAR>
-2.11525

>  <SCORE.INTER.ROT>
1

>  <SCORE.INTER.SOLV>
10.4906

>  <SCORE.INTER.VDW>
-16.1628

>  <SCORE.INTER.norm>
-2.57502

>  <SCORE.INTRA>
0.354507

>  <SCORE.INTRA.DIHEDRAL>
0.581415

>  <SCORE.INTRA.DIHEDRAL.0>
2.19695

>  <SCORE.INTRA.POLAR>
0

>  <SCORE.INTRA.POLAR.0>
0

>  <SCORE.INTRA.REPUL>
0

>  <SCORE.INTRA.REPUL.0>
0

>  <SCORE.INTRA.SOLV>
0.000102355

>  <SCORE.INTRA.SOLV.lig_0>
-11.1596

>  <SCORE.INTRA.VDW>
0.0637479

>  <SCORE.INTRA.VDW.0>
-0.156765

>  <SCORE.INTRA.norm>
0.0393896

>  <SCORE.RESTR>
0

>  <SCORE.RESTR.CAVITY>
0

>  <SCORE.RESTR.norm>
0

>  <SCORE.SYSTEM>
-21.3898

>  <SCORE.SYSTEM.CONST>
0

>  <SCORE.SYSTEM.DIHEDRAL>
4.37756

>  <SCORE.SYSTEM.POLAR>
-3.03243

>  <SCORE.SYSTEM.SOLV>
-0.00883602

>  <SCORE.SYSTEM.VDW>
-5.60803

>  <SCORE.SYSTEM.norm>
-2.37665

>  <SCORE.heavy>
9

>  <SCORE.norm>
-4.91228

$$$$
P107841297
 OpenBabel12072022113D
libRbt.so/2013.1/901 2013/11/27
 10 10  0  0  0  0  0  0  0  0999 V2000
  -28.7420   14.9126  -16.1888 C   0  0  0  0  0  0  0  0  0  0  0  0
  -28.4665   16.4044  -16.2548 C   0  0  0  0  0  0  0  0  0  0  0  0
  -29.6496   17.1588  -16.6211 N   0  0  0  0  0  0  0  0  0  0  0  0
  -29.8741   17.6637  -17.9521 C   0  0  0  0  0  0  0  0  0  0  0  0
  -31.0468   18.6261  -17.7877 C   0  0  1  0  0  0  0  0  0  0  0  0
  -31.7929   18.1139  -16.5607 C   0  0  0  0  0  0  0  0  0  0  0  0
  -30.7247   17.3894  -15.7784 C   0  0  0  0  0  0  0  0  0  0  0  0
  -30.8347   17.0100  -14.6233 O   0  0  0  0  0  0  0  0  0  0  0  0
  -30.5954   19.9589  -17.5375 O   0  0  0  0  0  0  0  0  0  0  0  0
  -31.3751   20.5370  -17.4796 H   0  0  0  0  0  0  0  0  0  0  0  0
  1  2  1  0  0  0  0
  2  3  1  0  0  0  0
  3  4  1  0  0  0  0
  3  7  1  0  0  0  0
  4  5  1  0  0  0  0
  5  6  1  0  0  0  0
  5  9  1  1  0  0  0
  6  7  1  0  0  0  0
  7  8  2  0  0  0  0
  9 10  1  0  0  0  0
M  END
>  <CHROM.0>
-61.40133175,-60.39035830,-67.22383505,-43.52152106,-57.85644677,-62.85626264
-66.99541501,-60.23440213,-168.66843704

>  <CHROM.1>
-101.34274341,177.56290581,-30.19085430,17.49810100,-16.58095351,-0.93394665
0.69011175,-0.85082702

>  <Name>
P107841297

>  <RI>
0

>  <Rbt.Current_Directory>
/home/fstefaniak/projects/zuza/docking/adenine/4TZX

>  <Rbt.Executable>
rbdock ($Id: //depot/dev/client3/rdock/2013.1/src/exe/rbdock.cxx#4 $)

>  <Rbt.Library>
libRbt.so (2013.1, Build901 2013/11/27)

>  <Rbt.Parameter_File>
/home/fstefaniak/progs/rDock//data/scripts/dock_solv.prm

>  <Rbt.Receptor>
4tzx.prm

>  <SCORE>
-44.058

>  <SCORE.INTER>
-23.2022

>  <SCORE.INTER.CONST>
1

>  <SCORE.INTER.POLAR>
-2.11053

>  <SCORE.INTER.ROT>
1

>  <SCORE.INTER.SOLV>
10.5618

>  <SCORE.INTER.VDW>
-16.2203

>  <SCORE.INTER.norm>
-2.57802

>  <SCORE.INTRA>
0.349825

>  <SCORE.INTRA.DIHEDRAL>
0.553858

>  <SCORE.INTRA.DIHEDRAL.0>
2.19695

>  <SCORE.INTRA.POLAR>
0

>  <SCORE.INTRA.POLAR.0>
0

>  <SCORE.INTRA.REPUL>
0

>  <SCORE.INTRA.REPUL.0>
0

>  <SCORE.INTRA.SOLV>
0.0154104

>  <SCORE.INTRA.SOLV.lig_0>
-11.1596

>  <SCORE.INTRA.VDW>
0.0651906

>  <SCORE.INTRA.VDW.0>
-0.156765

>  <SCORE.INTRA.norm>
0.0388694

>  <SCORE.RESTR>
0

>  <SCORE.RESTR.CAVITY>
0

>  <SCORE.RESTR.norm>
0

>  <SCORE.SYSTEM>
-21.2056

>  <SCORE.SYSTEM.CONST>
0

>  <SCORE.SYSTEM.DIHEDRAL>
4.43717

>  <SCORE.SYSTEM.POLAR>
-3.0368

>  <SCORE.SYSTEM.SOLV>
0.177606

>  <SCORE.SYSTEM.VDW>
-5.55266

>  <SCORE.SYSTEM.norm>
-2.35618

>  <SCORE.heavy>
9

>  <SCORE.norm>
-4.89533

$$$$
P107841297
 OpenBabel12072022113D
libRbt.so/2013.1/901 2013/11/27
 10 10  0  0  0  0  0  0  0  0999 V2000
  -28.7496   14.8922  -16.1978 C   0  0  0  0  0  0  0  0  0  0  0  0
  -28.4578   16.3805  -16.2716 C   0  0  0  0  0  0  0  0  0  0  0  0
  -29.6361   17.1471  -16.6279 N   0  0  0  0  0  0  0  0  0  0  0  0
  -29.8660   17.6554  -17.9567 C   0  0  0  0  0  0  0  0  0  0  0  0
  -31.0276   18.6295  -17.7823 C   0  0  1  0  0  0  0  0  0  0  0  0
  -31.7691   18.1239  -16.5498 C   0  0  0  0  0  0  0  0  0  0  0  0
  -30.7021   17.3879  -15.7765 C   0  0  0  0  0  0  0  0  0  0  0  0
  -30.8068   17.0088  -14.6208 O   0  0  0  0  0  0  0  0  0  0  0  0
  -30.5606   19.9574  -17.5347 O   0  0  0  0  0  0  0  0  0  0  0  0
  -31.3336   20.5448  -17.4782 H   0  0  0  0  0  0  0  0  0  0  0  0
  1  2  1  0  0  0  0
  2  3  1  0  0  0  0
  3  4  1  0  0  0  0
  3  7  1  0  0  0  0
  4  5  1  0  0  0  0
  5  6  1  0  0  0  0
  5  9  1  1  0  0  0
  6  7  1  0  0  0  0
  7  8  2  0  0  0  0
  9 10  1  0  0  0  0
M  END
>  <CHROM.0>
-60.65927048,-63.59254817,-65.46036535,-42.73638459,-58.45737477,-60.35000303
-67.75741097,-55.06693207,-169.02905425

>  <CHROM.1>
-101.62137609,177.05265349,-30.17373235,17.49198378,-16.58248258,-0.93618639
0.70227498,-0.84933771

>  <Name>
P107841297

>  <RI>
0

>  <Rbt.Current_Directory>
/home/fstefaniak/projects/zuza/docking/adenine/4TZX

>  <Rbt.Executable>
rbdock ($Id: //depot/dev/client3/rdock/2013.1/src/exe/rbdock.cxx#4 $)

>  <Rbt.Library>
libRbt.so (2013.1, Build901 2013/11/27)

>  <Rbt.Parameter_File>
/home/fstefaniak/progs/rDock//data/scripts/dock_solv.prm

>  <Rbt.Receptor>
4tzx.prm

>  <SCORE>
-44.0041

>  <SCORE.INTER>
-23.2181

>  <SCORE.INTER.CONST>
1

>  <SCORE.INTER.POLAR>
-2.11525

>  <SCORE.INTER.ROT>
1

>  <SCORE.INTER.SOLV>
10.5728

>  <SCORE.INTER.VDW>
-16.2189

>  <SCORE.INTER.norm>
-2.57979

>  <SCORE.INTRA>
0.35172

>  <SCORE.INTRA.DIHEDRAL>
0.56397

>  <SCORE.INTRA.DIHEDRAL.0>
2.19695

>  <SCORE.INTRA.POLAR>
0

>  <SCORE.INTRA.POLAR.0>
0

>  <SCORE.INTRA.REPUL>
0

>  <SCORE.INTRA.REPUL.0>
0

>  <SCORE.INTRA.SOLV>
0.0161167

>  <SCORE.INTRA.SOLV.lig_0>
-11.1596

>  <SCORE.INTRA.VDW>
0.061677

>  <SCORE.INTRA.VDW.0>
-0.156765

>  <SCORE.INTRA.norm>
0.0390801

>  <SCORE.RESTR>
0

>  <SCORE.RESTR.CAVITY>
0

>  <SCORE.RESTR.norm>
0

>  <SCORE.SYSTEM>
-21.1377

>  <SCORE.SYSTEM.CONST>
0

>  <SCORE.SYSTEM.DIHEDRAL>
4.58106

>  <SCORE.SYSTEM.POLAR>
-3.06357

>  <SCORE.SYSTEM.SOLV>
0.190253

>  <SCORE.SYSTEM.VDW>
-5.47031

>  <SCORE.SYSTEM.norm>
-2.34863

>  <SCORE.heavy>
9

>  <SCORE.norm>
-4.88934

$$$$
P107917471
 OpenBabel12072022113D
libRbt.so/2013.1/901 2013/11/27
 13 13  0  0  0  0  0  0  0  0999 V2000
  -29.9654   18.1275  -17.7219 C   0  0  0  0  0  0  0  0  0  0  0  0
  -29.7773   16.7558  -17.0811 C   0  0  0  0  0  0  0  0  0  0  0  0
  -30.1256   16.7482  -15.5870 C   0  0  2  0  0  0  0  0  0  0  0  0
  -31.4357   17.5101  -15.3250 C   0  0  0  0  0  0  0  0  0  0  0  0
  -31.4799   18.7915  -15.9568 O   0  0  0  0  0  0  0  0  0  0  0  0
  -31.3285   18.7031  -17.3715 C   0  0  0  0  0  0  0  0  0  0  0  0
  -28.9838   17.3253  -14.7177 C   0  0  0  0  0  0  0  0  0  0  0  0
  -27.8378   17.5242  -15.1055 O   0  0  0  0  0  0  0  0  0  0  0  0
  -29.3251   17.5749  -13.4145 N   0  0  0  0  0  0  0  0  0  0  0  0
  -30.3047   15.3780  -15.1679 O   0  0  0  0  0  0  0  0  0  0  0  0
  -29.0247   16.9340  -12.6893 H   0  0  0  0  0  0  0  0  0  0  0  0
  -29.5298   18.5327  -13.1628 H   0  0  0  0  0  0  0  0  0  0  0  0
  -30.9400   14.9783  -15.7903 H   0  0  0  0  0  0  0  0  0  0  0  0
  1  2  1  0  0  0  0
  1  6  1  0  0  0  0
  2  3  1  0  0  0  0
  3  4  1  0  0  0  0
  3  7  1  1  0  0  0
  3 10  1  0  0  0  0
  4  5  1  0  0  0  0
  5  6  1  0  0  0  0
  7  8  2  0  0  0  0
  7  9  1  0  0  0  0
  9 11  1  0  0  0  0
  9 12  1  0  0  0  0
 10 13  1  0  0  0  0
M  END
>  <CHROM.0>
-60.48070538,-65.75668754,-66.13315008,-43.57465644,-64.89606044,-64.13398965
-65.73957627,-59.30170229,-168.91328875

>  <CHROM.1>
-13.66003937,-51.88664665,103.10778251,-30.05829669,17.43338341,-15.70918760
-2.21997640,-0.41510360,1.72752720

>  <Name>
P107917471

>  <RI>
0

>  <Rbt.Current_Directory>
/home/fstefaniak/projects/zuza/docking/adenine/4TZX

>  <Rbt.Executable>
rbdock ($Id: //depot/dev/client3/rdock/2013.1/src/exe/rbdock.cxx#4 $)

>  <Rbt.Library>
libRbt.so (2013.1, Build901 2013/11/27)

>  <Rbt.Parameter_File>
/home/fstefaniak/progs/rDock//data/scripts/dock_solv.prm

>  <Rbt.Receptor>
4tzx.prm

>  <SCORE>
-58.7358

>  <SCORE.INTER>
-38.0487

>  <SCORE.INTER.CONST>
1

>  <SCORE.INTER.POLAR>
-5.42419

>  <SCORE.INTER.ROT>
2

>  <SCORE.INTER.SOLV>
12.8441

>  <SCORE.INTER.VDW>
-16.4999

>  <SCORE.INTER.norm>
-3.80487

>  <SCORE.INTRA>
0.448164

>  <SCORE.INTRA.DIHEDRAL>
0.453583

>  <SCORE.INTRA.DIHEDRAL.0>
1.10441

>  <SCORE.INTRA.POLAR>
0

>  <SCORE.INTRA.POLAR.0>
0

>  <SCORE.INTRA.REPUL>
0

>  <SCORE.INTRA.REPUL.0>
0

>  <SCORE.INTRA.SOLV>
-0.221136

>  <SCORE.INTRA.SOLV.lig_0>
-13.339

>  <SCORE.INTRA.VDW>
0.33194

>  <SCORE.INTRA.VDW.0>
-0.242916

>  <SCORE.INTRA.norm>
0.0448164

>  <SCORE.RESTR>
0

>  <SCORE.RESTR.CAVITY>
0

>  <SCORE.RESTR.norm>
0

>  <SCORE.SYSTEM>
-21.1352

>  <SCORE.SYSTEM.CONST>
0

>  <SCORE.SYSTEM.DIHEDRAL>
4.54961

>  <SCORE.SYSTEM.POLAR>
-3.03881

>  <SCORE.SYSTEM.SOLV>
0.169112

>  <SCORE.SYSTEM.VDW>
-5.53372

>  <SCORE.SYSTEM.norm>
-2.11352

>  <SCORE.heavy>
10

>  <SCORE.norm>
-5.87358

$$$$
P107917471
 OpenBabel12072022113D
libRbt.so/2013.1/901 2013/11/27
 13 13  0  0  0  0  0  0  0  0999 V2000
  -29.9590   18.1829  -17.7053 C   0  0  0  0  0  0  0  0  0  0  0  0
  -29.7452   16.7986  -17.1008 C   0  0  0  0  0  0  0  0  0  0  0  0
  -30.0942   16.7450  -15.6077 C   0  0  2  0  0  0  0  0  0  0  0  0
  -31.4187   17.4746  -15.3272 C   0  0  0  0  0  0  0  0  0  0  0  0
  -31.4870   18.7712  -15.9249 O   0  0  0  0  0  0  0  0  0  0  0  0
  -31.3330   18.7231  -17.3414 C   0  0  0  0  0  0  0  0  0  0  0  0
  -28.9641   17.3204  -14.7223 C   0  0  0  0  0  0  0  0  0  0  0  0
  -27.8104   17.5101  -15.0913 O   0  0  0  0  0  0  0  0  0  0  0  0
  -29.3264   17.5801  -13.4267 N   0  0  0  0  0  0  0  0  0  0  0  0
  -30.2475   15.3610  -15.2252 O   0  0  0  0  0  0  0  0  0  0  0  0
  -29.0113   16.9623  -12.6878 H   0  0  0  0  0  0  0  0  0  0  0  0
  -29.5662   18.5344  -13.1934 H   0  0  0  0  0  0  0  0  0  0  0  0
  -30.9212   14.9819  -15.8193 H   0  0  0  0  0  0  0  0  0  0  0  0
  1  2  1  0  0  0  0
  1  6  1  0  0  0  0
  2  3  1  0  0  0  0
  3  4  1  0  0  0  0
  3  7  1  1  0  0  0
  3 10  1  0  0  0  0
  4  5  1  0  0  0  0
  5  6  1  0  0  0  0
  7  8  2  0  0  0  0
  7  9  1  0  0  0  0
  9 11  1  0  0  0  0
  9 12  1  0  0  0  0
 10 13  1  0  0  0  0
M  END
>  <CHROM.0>
-55.98186033,-60.53738489,-57.70721282,-43.43358911,-174.13679217,-55.38392258
-64.82468726,-57.88128806,-169.48076434

>  <CHROM.1>
-16.19378945,-55.74483978,105.54916199,-30.04076607,17.43577054,-15.71169908
-2.26057065,-0.48006333,1.67539222

>  <Name>
P107917471

>  <RI>
0

>  <Rbt.Current_Directory>
/home/fstefaniak/projects/zuza/docking/adenine/4TZX

>  <Rbt.Executable>
rbdock ($Id: //depot/dev/client3/rdock/2013.1/src/exe/rbdock.cxx#4 $)

>  <Rbt.Library>
libRbt.so (2013.1, Build901 2013/11/27)

>  <Rbt.Parameter_File>
/home/fstefaniak/progs/rDock//data/scripts/dock_solv.prm

>  <Rbt.Receptor>
4tzx.prm

>  <SCORE>
-58.4691

>  <SCORE.INTER>
-37.937

>  <SCORE.INTER.CONST>
1

>  <SCORE.INTER.POLAR>
-5.38095

>  <SCORE.INTER.ROT>
2

>  <SCORE.INTER.SOLV>
12.7918

>  <SCORE.INTER.VDW>
-16.5521

>  <SCORE.INTER.norm>
-3.7937

>  <SCORE.INTRA>
0.41922

>  <SCORE.INTRA.DIHEDRAL>
0.394303

>  <SCORE.INTRA.DIHEDRAL.0>
1.10441

>  <SCORE.INTRA.POLAR>
0

>  <SCORE.INTRA.POLAR.0>
0

>  <SCORE.INTRA.REPUL>
0

>  <SCORE.INTRA.REPUL.0>
0

>  <SCORE.INTRA.SOLV>
-0.219077

>  <SCORE.INTRA.SOLV.lig_0>
-13.339

>  <SCORE.INTRA.VDW>
0.331607

>  <SCORE.INTRA.VDW.0>
-0.242916

>  <SCORE.INTRA.norm>
0.041922

>  <SCORE.RESTR>
0

>  <SCORE.RESTR.CAVITY>
0

>  <SCORE.RESTR.norm>
0

>  <SCORE.SYSTEM>
-20.9514

>  <SCORE.SYSTEM.CONST>
0

>  <SCORE.SYSTEM.DIHEDRAL>
4.32574

>  <SCORE.SYSTEM.POLAR>
-3.09237

>  <SCORE.SYSTEM.SOLV>
0.0375391

>  <SCORE.SYSTEM.VDW>
-5.11412

>  <SCORE.SYSTEM.norm>
-2.09514

>  <SCORE.heavy>
10

>  <SCORE.norm>
-5.84691

$$$$
P107917471
 OpenBabel12072022113D
libRbt.so/2013.1/901 2013/11/27
 13 13  0  0  0  0  0  0  0  0999 V2000
  -29.8281   17.9189  -17.8445 C   0  0  0  0  0  0  0  0  0  0  0  0
  -29.6856   16.6036  -17.0848 C   0  0  0  0  0  0  0  0  0  0  0  0
  -30.1133   16.7197  -15.6160 C   0  0  2  0  0  0  0  0  0  0  0  0
  -31.4293   17.5053  -15.4880 C   0  0  0  0  0  0  0  0  0  0  0  0
  -31.4293   18.7308  -16.2237 O   0  0  0  0  0  0  0  0  0  0  0  0
  -31.2033   18.5262  -17.6163 C   0  0  0  0  0  0  0  0  0  0  0  0
  -29.0150   17.3618  -14.7364 C   0  0  0  0  0  0  0  0  0  0  0  0
  -27.8999   17.6855  -15.1302 O   0  0  0  0  0  0  0  0  0  0  0  0
  -29.3543   17.5182  -13.4182 N   0  0  0  0  0  0  0  0  0  0  0  0
  -30.3257   15.3891  -15.0967 O   0  0  0  0  0  0  0  0  0  0  0  0
  -28.9849   16.8740  -12.7287 H   0  0  0  0  0  0  0  0  0  0  0  0
  -29.6397   18.4408  -13.1180 H   0  0  0  0  0  0  0  0  0  0  0  0
  -30.9135   14.9352  -15.7286 H   0  0  0  0  0  0  0  0  0  0  0  0
  1  2  1  0  0  0  0
  1  6  1  0  0  0  0
  2  3  1  0  0  0  0
  3  4  1  0  0  0  0
  3  7  1  1  0  0  0
  3 10  1  0  0  0  0
  4  5  1  0  0  0  0
  5  6  1  0  0  0  0
  7  8  2  0  0  0  0
  7  9  1  0  0  0  0
  9 11  1  0  0  0  0
  9 12  1  0  0  0  0
 10 13  1  0  0  0  0
M  END
>  <CHROM.0>
-57.72670460,60.74837040,-60.21789611,-43.54805011,-176.59632273,-61.93312550
-65.64006420,-54.75760537,-168.33741342

>  <CHROM.1>
-3.50765129,-50.60751397,102.86686295,-30.03172490,17.38710995,-15.78892309
-2.08635760,0.06982531,1.97732929

>  <Name>
P107917471

>  <RI>
0

>  <Rbt.Current_Directory>
/home/fstefaniak/projects/zuza/docking/adenine/4TZX

>  <Rbt.Executable>
rbdock ($Id: //depot/dev/client3/rdock/2013.1/src/exe/rbdock.cxx#4 $)

>  <Rbt.Library>
libRbt.so (2013.1, Build901 2013/11/27)

>  <Rbt.Parameter_File>
/home/fstefaniak/progs/rDock//data/scripts/dock_solv.prm

>  <Rbt.Receptor>
4tzx.prm

>  <SCORE>
-57.4338

>  <SCORE.INTER>
-37.3614

>  <SCORE.INTER.CONST>
1

>  <SCORE.INTER.POLAR>
-5.39666

>  <SCORE.INTER.ROT>
2

>  <SCORE.INTER.SOLV>
12.7655

>  <SCORE.INTER.VDW>
-16.1072

>  <SCORE.INTER.norm>
-3.73614

>  <SCORE.INTRA>
0.195734

>  <SCORE.INTRA.DIHEDRAL>
0.106605

>  <SCORE.INTRA.DIHEDRAL.0>
1.10441

>  <SCORE.INTRA.POLAR>
0

>  <SCORE.INTRA.POLAR.0>
0

>  <SCORE.INTRA.REPUL>
0

>  <SCORE.INTRA.REPUL.0>
0

>  <SCORE.INTRA.SOLV>
-0.219394

>  <SCORE.INTRA.SOLV.lig_0>
-13.339

>  <SCORE.INTRA.VDW>
0.252129

>  <SCORE.INTRA.VDW.0>
-0.242916

>  <SCORE.INTRA.norm>
0.0195734

>  <SCORE.RESTR>
0

>  <SCORE.RESTR.CAVITY>
0

>  <SCORE.RESTR.norm>
0

>  <SCORE.SYSTEM>
-20.2682

>  <SCORE.SYSTEM.CONST>
0

>  <SCORE.SYSTEM.DIHEDRAL>
4.30537

>  <SCORE.SYSTEM.POLAR>
-3.07217

>  <SCORE.SYSTEM.SOLV>
0.079737

>  <SCORE.SYSTEM.VDW>
-4.73327

>  <SCORE.SYSTEM.norm>
-2.02682

>  <SCORE.heavy>
10

>  <SCORE.norm>
-5.74338

$$$$
P107919697
 OpenBabel12072022113D
libRbt.so/2013.1/901 2013/11/27
 13 12  0  0  0  0  0  0  0  0999 V2000
  -28.9232   15.7039  -16.0261 C   0  0  0  0  0  0  0  0  0  0  0  0
  -29.4301   17.1342  -16.0685 C   0  0  0  0  0  0  0  0  0  0  0  0
  -30.6253   17.3427  -15.1626 C   0  0  0  0  0  0  0  0  0  0  0  0
  -30.9648   16.5652  -14.2739 O   0  0  0  0  0  0  0  0  0  0  0  0
  -31.3277   18.4959  -15.4535 N   0  0  0  0  0  0  0  0  0  0  0  0
  -32.3414   18.4113  -16.4269 N   0  0  0  0  0  0  0  0  0  0  0  0
  -31.9850   18.7345  -17.7114 C   0  0  0  0  0  0  0  0  0  0  0  0
  -30.8707   19.1157  -18.0485 O   0  0  0  0  0  0  0  0  0  0  0  0
  -33.0056   18.6049  -18.5969 N   0  0  0  0  0  0  0  0  0  0  0  0
  -30.9110   19.4195  -15.3359 H   0  0  0  0  0  0  0  0  0  0  0  0
  -32.9750   17.6232  -16.2994 H   0  0  0  0  0  0  0  0  0  0  0  0
  -33.1646   19.3758  -19.2304 H   0  0  0  0  0  0  0  0  0  0  0  0
  -33.0663   17.6851  -19.0163 H   0  0  0  0  0  0  0  0  0  0  0  0
  1  2  1  0  0  0  0
  2  3  1  0  0  0  0
  3  4  2  0  0  0  0
  3  5  1  0  0  0  0
  5  6  1  0  0  0  0
  5 10  1  0  0  0  0
  6  7  1  0  0  0  0
  6 11  1  0  0  0  0
  7  8  2  0  0  0  0
  7  9  1  0  0  0  0
  9 12  1  0  0  0  0
  9 13  1  0  0  0  0
M  END
>  <CHROM.0>
-56.24964641,-174.20445406,-63.37982979,-42.42682656,-58.54724888,-60.07291503
-64.50925714,-53.94127845,-168.04317068

>  <CHROM.1>
15.73744396,87.63416346,-94.04166168,-1.85836558,131.93929899,-31.06931089
17.78994638,-16.43950923,-0.88226080,0.50799254,-1.25519669

>  <Name>
P107919697

>  <RI>
0

>  <Rbt.Current_Directory>
/home/fstefaniak/projects/zuza/docking/adenine/4TZX

>  <Rbt.Executable>
rbdock ($Id: //depot/dev/client3/rdock/2013.1/src/exe/rbdock.cxx#4 $)

>  <Rbt.Library>
libRbt.so (2013.1, Build901 2013/11/27)

>  <Rbt.Parameter_File>
/home/fstefaniak/progs/rDock//data/scripts/dock_solv.prm

>  <Rbt.Receptor>
4tzx.prm

>  <SCORE>
-60.9647

>  <SCORE.INTER>
-39.1098

>  <SCORE.INTER.CONST>
1

>  <SCORE.INTER.POLAR>
-7.10658

>  <SCORE.INTER.ROT>
5

>  <SCORE.INTER.SOLV>
15.0139

>  <SCORE.INTER.VDW>
-14.3225

>  <SCORE.INTER.norm>
-4.34553

>  <SCORE.INTRA>
-1.05278

>  <SCORE.INTRA.DIHEDRAL>
-0.78396

>  <SCORE.INTRA.DIHEDRAL.0>
4.0247

>  <SCORE.INTRA.POLAR>
0

>  <SCORE.INTRA.POLAR.0>
0

>  <SCORE.INTRA.REPUL>
0

>  <SCORE.INTRA.REPUL.0>
0

>  <SCORE.INTRA.SOLV>
0.418837

>  <SCORE.INTRA.SOLV.lig_0>
-21.1684

>  <SCORE.INTRA.VDW>
-0.870221

>  <SCORE.INTRA.VDW.0>
0.431183

>  <SCORE.INTRA.norm>
-0.116976

>  <SCORE.RESTR>
0

>  <SCORE.RESTR.CAVITY>
0

>  <SCORE.RESTR.norm>
0

>  <SCORE.SYSTEM>
-20.8021

>  <SCORE.SYSTEM.CONST>
0

>  <SCORE.SYSTEM.DIHEDRAL>
4.67513

>  <SCORE.SYSTEM.POLAR>
-3.1046

>  <SCORE.SYSTEM.SOLV>
0.182495

>  <SCORE.SYSTEM.VDW>
-5.13862

>  <SCORE.SYSTEM.norm>
-2.31134

>  <SCORE.heavy>
9

>  <SCORE.norm>
-6.77385

$$$$
P107919697
 OpenBabel12072022113D
libRbt.so/2013.1/901 2013/11/27
 13 12  0  0  0  0  0  0  0  0999 V2000
  -29.0590   15.5423  -15.7664 C   0  0  0  0  0  0  0  0  0  0  0  0
  -30.1106   16.5496  -16.1952 C   0  0  0  0  0  0  0  0  0  0  0  0
  -30.6408   17.3530  -15.0264 C   0  0  0  0  0  0  0  0  0  0  0  0
  -30.5207   17.0241  -13.8487 O   0  0  0  0  0  0  0  0  0  0  0  0
  -31.3095   18.4966  -15.4174 N   0  0  0  0  0  0  0  0  0  0  0  0
  -32.2954   18.3644  -16.4137 N   0  0  0  0  0  0  0  0  0  0  0  0
  -31.9017   18.6221  -17.7022 C   0  0  0  0  0  0  0  0  0  0  0  0
  -30.7567   18.9008  -18.0366 O   0  0  0  0  0  0  0  0  0  0  0  0
  -32.9214   18.5531  -18.5955 N   0  0  0  0  0  0  0  0  0  0  0  0
  -30.8770   19.4179  -15.3502 H   0  0  0  0  0  0  0  0  0  0  0  0
  -32.9345   17.5845  -16.2649 H   0  0  0  0  0  0  0  0  0  0  0  0
  -33.0633   19.3552  -19.1933 H   0  0  0  0  0  0  0  0  0  0  0  0
  -32.9983   17.6549  -19.0569 H   0  0  0  0  0  0  0  0  0  0  0  0
  1  2  1  0  0  0  0
  2  3  1  0  0  0  0
  3  4  2  0  0  0  0
  3  5  1  0  0  0  0
  5  6  1  0  0  0  0
  5 10  1  0  0  0  0
  6  7  1  0  0  0  0
  6 11  1  0  0  0  0
  7  8  2  0  0  0  0
  7  9  1  0  0  0  0
  9 12  1  0  0  0  0
  9 13  1  0  0  0  0
M  END
>  <CHROM.0>
-56.16601477,-61.16325963,-63.82723927,-42.57907003,62.05635600,-56.65626198
-63.41363683,-56.56379465,-169.82494389

>  <CHROM.1>
-17.84562505,49.43844550,-95.53489334,3.06950461,126.39767964,-31.06566487
17.71813799,-16.35108371,-0.80376400,0.74896374,-1.53614766

>  <Name>
P107919697

>  <RI>
0

>  <Rbt.Current_Directory>
/home/fstefaniak/projects/zuza/docking/adenine/4TZX

>  <Rbt.Executable>
rbdock ($Id: //depot/dev/client3/rdock/2013.1/src/exe/rbdock.cxx#4 $)

>  <Rbt.Library>
libRbt.so (2013.1, Build901 2013/11/27)

>  <Rbt.Parameter_File>
/home/fstefaniak/progs/rDock//data/scripts/dock_solv.prm

>  <Rbt.Receptor>
4tzx.prm

>  <SCORE>
-59.2202

>  <SCORE.INTER>
-38.7315

>  <SCORE.INTER.CONST>
1

>  <SCORE.INTER.POLAR>
-7.18241

>  <SCORE.INTER.ROT>
5

>  <SCORE.INTER.SOLV>
14.7768

>  <SCORE.INTER.VDW>
-13.7386

>  <SCORE.INTER.norm>
-4.3035

>  <SCORE.INTRA>
-0.428805

>  <SCORE.INTRA.DIHEDRAL>
-0.79248

>  <SCORE.INTRA.DIHEDRAL.0>
4.0247

>  <SCORE.INTRA.POLAR>
0

>  <SCORE.INTRA.POLAR.0>
0

>  <SCORE.INTRA.REPUL>
0

>  <SCORE.INTRA.REPUL.0>
0

>  <SCORE.INTRA.SOLV>
0.479241

>  <SCORE.INTRA.SOLV.lig_0>
-21.1684

>  <SCORE.INTRA.VDW>
-0.272186

>  <SCORE.INTRA.VDW.0>
0.431183

>  <SCORE.INTRA.norm>
-0.0476451

>  <SCORE.RESTR>
0

>  <SCORE.RESTR.CAVITY>
0

>  <SCORE.RESTR.norm>
0

>  <SCORE.SYSTEM>
-20.06

>  <SCORE.SYSTEM.CONST>
0

>  <SCORE.SYSTEM.DIHEDRAL>
4.25714

>  <SCORE.SYSTEM.POLAR>
-3.08102

>  <SCORE.SYSTEM.SOLV>
0.00180871

>  <SCORE.SYSTEM.VDW>
-4.52291

>  <SCORE.SYSTEM.norm>
-2.22889

>  <SCORE.heavy>
9

>  <SCORE.norm>
-6.58003

$$$$
P107919697
 OpenBabel12072022113D
libRbt.so/2013.1/901 2013/11/27
 13 12  0  0  0  0  0  0  0  0999 V2000
  -29.1708   15.6324  -16.1496 C   0  0  0  0  0  0  0  0  0  0  0  0
  -29.3615   17.1154  -15.8870 C   0  0  0  0  0  0  0  0  0  0  0  0
  -30.6235   17.3974  -15.0994 C   0  0  0  0  0  0  0  0  0  0  0  0
  -31.0310   16.7020  -14.1720 O   0  0  0  0  0  0  0  0  0  0  0  0
  -31.3011   18.5141  -15.5484 N   0  0  0  0  0  0  0  0  0  0  0  0
  -32.3144   18.3180  -16.5059 N   0  0  0  0  0  0  0  0  0  0  0  0
  -31.9562   18.4857  -17.8193 C   0  0  0  0  0  0  0  0  0  0  0  0
  -30.8028   18.5979  -18.2162 O   0  0  0  0  0  0  0  0  0  0  0  0
  -33.0202   18.5315  -18.6609 N   0  0  0  0  0  0  0  0  0  0  0  0
  -30.8655   19.4364  -15.5559 H   0  0  0  0  0  0  0  0  0  0  0  0
  -32.9507   17.5526  -16.2866 H   0  0  0  0  0  0  0  0  0  0  0  0
  -33.1234   19.3626  -19.2260 H   0  0  0  0  0  0  0  0  0  0  0  0
  -33.1942   17.6591  -19.1449 H   0  0  0  0  0  0  0  0  0  0  0  0
  1  2  1  0  0  0  0
  2  3  1  0  0  0  0
  3  4  2  0  0  0  0
  3  5  1  0  0  0  0
  5  6  1  0  0  0  0
  5 10  1  0  0  0  0
  6  7  1  0  0  0  0
  6 11  1  0  0  0  0
  7  8  2  0  0  0  0
  7  9  1  0  0  0  0
  9 12  1  0  0  0  0
  9 13  1  0  0  0  0
M  END
>  <CHROM.0>
-57.59786639,-68.31837318,59.51514177,-43.49309341,-54.19302838,-57.56828927
56.01078623,-173.40000824,-168.89798968

>  <CHROM.1>
39.20242558,92.80717001,-95.49583325,11.04452221,121.73417050,-31.08332686
17.69891455,-16.47434292,-0.88078817,0.55683803,-1.38675395

>  <Name>
P107919697

>  <RI>
0

>  <Rbt.Current_Directory>
/home/fstefaniak/projects/zuza/docking/adenine/4TZX

>  <Rbt.Executable>
rbdock ($Id: //depot/dev/client3/rdock/2013.1/src/exe/rbdock.cxx#4 $)

>  <Rbt.Library>
libRbt.so (2013.1, Build901 2013/11/27)

>  <Rbt.Parameter_File>
/home/fstefaniak/progs/rDock//data/scripts/dock_solv.prm

>  <Rbt.Receptor>
4tzx.prm

>  <SCORE>
-59.1847

>  <SCORE.INTER>
-39.2506

>  <SCORE.INTER.CONST>
1

>  <SCORE.INTER.POLAR>
-6.98918

>  <SCORE.INTER.ROT>
5

>  <SCORE.INTER.SOLV>
14.6906

>  <SCORE.INTER.VDW>
-14.7

>  <SCORE.INTER.norm>
-4.36118

>  <SCORE.INTRA>
-0.948695

>  <SCORE.INTRA.DIHEDRAL>
0.176359

>  <SCORE.INTRA.DIHEDRAL.0>
4.0247

>  <SCORE.INTRA.POLAR>
0

>  <SCORE.INTRA.POLAR.0>
0

>  <SCORE.INTRA.REPUL>
0

>  <SCORE.INTRA.REPUL.0>
0

>  <SCORE.INTRA.SOLV>
0.508468

>  <SCORE.INTRA.SOLV.lig_0>
-21.1684

>  <SCORE.INTRA.VDW>
-1.29111

>  <SCORE.INTRA.VDW.0>
0.431183

>  <SCORE.INTRA.norm>
-0.105411

>  <SCORE.RESTR>
0

>  <SCORE.RESTR.CAVITY>
0

>  <SCORE.RESTR.norm>
0

>  <SCORE.SYSTEM>
-18.9855

>  <SCORE.SYSTEM.CONST>
0

>  <SCORE.SYSTEM.DIHEDRAL>
4.69785

>  <SCORE.SYSTEM.POLAR>
-3.05839

>  <SCORE.SYSTEM.SOLV>
-0.0450396

>  <SCORE.SYSTEM.VDW>
-4.01329

>  <SCORE.SYSTEM.norm>
-2.10949

>  <SCORE.heavy>
9

>  <SCORE.norm>
-6.57608

$$$$
P107971104
 OpenBabel12072022113D
libRbt.so/2013.1/901 2013/11/27
 15 15  0  0  0  0  0  0  0  0999 V2000
  -30.5425   18.6185  -18.4585 C   0  0  0  0  0  0  0  0  0  0  0  0
  -29.8313   17.3526  -17.9892 C   0  0  0  0  0  0  0  0  0  0  0  0
  -29.5115   17.4367  -16.4920 C   0  0  1  0  0  0  0  0  0  0  0  0
  -30.7877   17.7925  -15.7227 C   0  0  0  0  0  0  0  0  0  0  0  0
  -31.3490   19.0179  -16.2043 O   0  0  0  0  0  0  0  0  0  0  0  0
  -31.7412   18.9287  -17.5729 C   0  0  0  0  0  0  0  0  0  0  0  0
  -28.9279   16.1324  -15.9660 C   0  0  0  0  0  0  0  0  0  0  0  0
  -29.4257   15.5164  -15.0206 O   0  0  0  0  0  0  0  0  0  0  0  0
  -27.7962   15.6115  -16.5485 N   0  0  0  0  0  0  0  0  0  0  0  0
  -27.2942   14.3439  -16.4021 C   0  0  0  0  0  0  0  0  0  0  0  0
  -27.0295   13.7654  -15.3603 O   0  0  0  0  0  0  0  0  0  0  0  0
  -27.0575   13.7407  -17.6022 N   0  0  0  0  0  0  0  0  0  0  0  0
  -27.6475   16.0039  -17.4660 H   0  0  0  0  0  0  0  0  0  0  0  0
  -27.7194   13.0501  -17.9282 H   0  0  0  0  0  0  0  0  0  0  0  0
  -26.7464   14.3885  -18.3184 H   0  0  0  0  0  0  0  0  0  0  0  0
  1  2  1  0  0  0  0
  1  6  1  0  0  0  0
  2  3  1  0  0  0  0
  3  4  1  0  0  0  0
  3  7  1  1  0  0  0
  4  5  1  0  0  0  0
  5  6  1  0  0  0  0
  7  8  2  0  0  0  0
  7  9  1  0  0  0  0
  9 10  1  0  0  0  0
  9 13  1  0  0  0  0
 10 11  2  0  0  0  0
 10 12  1  0  0  0  0
 12 14  1  0  0  0  0
 12 15  1  0  0  0  0
M  END
>  <CHROM.0>
-60.57719039,-72.04980840,-60.90455022,-42.03819619,-178.18601913,-60.75582016
-66.60397164,-59.96025516,-169.51167276

>  <CHROM.1>
-123.98905689,-165.57615102,-53.82742038,-102.65099052,-29.26715450,16.49622415
-16.60767848,-2.79491843,-0.82425275,1.84850894

>  <Name>
P107971104

>  <RI>
0

>  <Rbt.Current_Directory>
/home/fstefaniak/projects/zuza/docking/adenine/4TZX

>  <Rbt.Executable>
rbdock ($Id: //depot/dev/client3/rdock/2013.1/src/exe/rbdock.cxx#4 $)

>  <Rbt.Library>
libRbt.so (2013.1, Build901 2013/11/27)

>  <Rbt.Parameter_File>
/home/fstefaniak/progs/rDock//data/scripts/dock_solv.prm

>  <Rbt.Receptor>
4tzx.prm

>  <SCORE>
-57.3502

>  <SCORE.INTER>
-36.7436

>  <SCORE.INTER.CONST>
1

>  <SCORE.INTER.POLAR>
-4.76994

>  <SCORE.INTER.ROT>
4

>  <SCORE.INTER.SOLV>
13.3193

>  <SCORE.INTER.VDW>
-19.3024

>  <SCORE.INTER.norm>
-3.06197

>  <SCORE.INTRA>
0.412914

>  <SCORE.INTRA.DIHEDRAL>
-0.0088891

>  <SCORE.INTRA.DIHEDRAL.0>
1.99833

>  <SCORE.INTRA.POLAR>
0

>  <SCORE.INTRA.POLAR.0>
0

>  <SCORE.INTRA.REPUL>
0

>  <SCORE.INTRA.REPUL.0>
0

>  <SCORE.INTRA.SOLV>
-0.125706

>  <SCORE.INTRA.SOLV.lig_0>
-18.0217

>  <SCORE.INTRA.VDW>
0.480212

>  <SCORE.INTRA.VDW.0>
-0.38228

>  <SCORE.INTRA.norm>
0.0344095

>  <SCORE.RESTR>
0

>  <SCORE.RESTR.CAVITY>
0

>  <SCORE.RESTR.norm>
0

>  <SCORE.SYSTEM>
-21.0195

>  <SCORE.SYSTEM.CONST>
0

>  <SCORE.SYSTEM.DIHEDRAL>
4.94582

>  <SCORE.SYSTEM.POLAR>
-3.05122

>  <SCORE.SYSTEM.SOLV>
0.00220281

>  <SCORE.SYSTEM.VDW>
-5.4916

>  <SCORE.SYSTEM.norm>
-1.75162

>  <SCORE.heavy>
12

>  <SCORE.norm>
-4.77918

$$$$
P107971104
 OpenBabel12072022113D
libRbt.so/2013.1/901 2013/11/27
 15 15  0  0  0  0  0  0  0  0999 V2000
  -30.5603   18.4733  -18.4282 C   0  0  0  0  0  0  0  0  0  0  0  0
  -29.7519   17.3104  -17.8603 C   0  0  0  0  0  0  0  0  0  0  0  0
  -29.4055   17.5620  -16.3879 C   0  0  1  0  0  0  0  0  0  0  0  0
  -30.6861   17.9042  -15.6198 C   0  0  0  0  0  0  0  0  0  0  0  0
  -31.3425   19.0359  -16.2005 O   0  0  0  0  0  0  0  0  0  0  0  0
  -31.7578   18.7869  -17.5422 C   0  0  0  0  0  0  0  0  0  0  0  0
  -28.7204   16.3578  -15.7563 C   0  0  0  0  0  0  0  0  0  0  0  0
  -29.1016   15.8589  -14.6948 O   0  0  0  0  0  0  0  0  0  0  0  0
  -27.6263   15.7983  -16.3736 N   0  0  0  0  0  0  0  0  0  0  0  0
  -26.3179   16.1939  -16.2648 C   0  0  0  0  0  0  0  0  0  0  0  0
  -25.8669   17.0849  -15.5628 O   0  0  0  0  0  0  0  0  0  0  0  0
  -25.4948   15.4881  -17.0923 N   0  0  0  0  0  0  0  0  0  0  0  0
  -27.7418   14.8019  -16.4825 H   0  0  0  0  0  0  0  0  0  0  0  0
  -25.3001   15.8670  -18.0087 H   0  0  0  0  0  0  0  0  0  0  0  0
  -24.6815   15.1111  -16.6172 H   0  0  0  0  0  0  0  0  0  0  0  0
  1  2  1  0  0  0  0
  1  6  1  0  0  0  0
  2  3  1  0  0  0  0
  3  4  1  0  0  0  0
  3  7  1  1  0  0  0
  4  5  1  0  0  0  0
  5  6  1  0  0  0  0
  7  8  2  0  0  0  0
  7  9  1  0  0  0  0
  9 10  1  0  0  0  0
  9 13  1  0  0  0  0
 10 11  2  0  0  0  0
 10 12  1  0  0  0  0
 12 14  1  0  0  0  0
 12 15  1  0  0  0  0
M  END
>  <CHROM.0>
-53.00255811,63.36359188,-68.72784070,-43.90165383,-54.85409545,-175.16549232
-64.58411295,-173.20744575,-167.68421357

>  <CHROM.1>
-128.83885343,84.60657106,2.94986620,92.90343344,-28.85923736,17.14572896
-16.46899588,-2.85863888,-0.41238056,1.88740959

>  <Name>
P107971104

>  <RI>
0

>  <Rbt.Current_Directory>
/home/fstefaniak/projects/zuza/docking/adenine/4TZX

>  <Rbt.Executable>
rbdock ($Id: //depot/dev/client3/rdock/2013.1/src/exe/rbdock.cxx#4 $)

>  <Rbt.Library>
libRbt.so (2013.1, Build901 2013/11/27)

>  <Rbt.Parameter_File>
/home/fstefaniak/progs/rDock//data/scripts/dock_solv.prm

>  <Rbt.Receptor>
4tzx.prm

>  <SCORE>
-56.4063

>  <SCORE.INTER>
-36.4093

>  <SCORE.INTER.CONST>
1

>  <SCORE.INTER.POLAR>
-4.67359

>  <SCORE.INTER.ROT>
4

>  <SCORE.INTER.SOLV>
14.1631

>  <SCORE.INTER.VDW>
-19.6819

>  <SCORE.INTER.norm>
-3.03411

>  <SCORE.INTRA>
-0.215384

>  <SCORE.INTRA.DIHEDRAL>
0.156795

>  <SCORE.INTRA.DIHEDRAL.0>
1.99833

>  <SCORE.INTRA.POLAR>
0

>  <SCORE.INTRA.POLAR.0>
0

>  <SCORE.INTRA.REPUL>
0

>  <SCORE.INTRA.REPUL.0>
0

>  <SCORE.INTRA.SOLV>
-0.309559

>  <SCORE.INTRA.SOLV.lig_0>
-18.0217

>  <SCORE.INTRA.VDW>
-0.139002

>  <SCORE.INTRA.VDW.0>
-0.38228

>  <SCORE.INTRA.norm>
-0.0179487

>  <SCORE.RESTR>
0

>  <SCORE.RESTR.CAVITY>
0

>  <SCORE.RESTR.norm>
0

>  <SCORE.SYSTEM>
-19.7816

>  <SCORE.SYSTEM.CONST>
0

>  <SCORE.SYSTEM.DIHEDRAL>
5.10511

>  <SCORE.SYSTEM.POLAR>
-3.09072

>  <SCORE.SYSTEM.SOLV>
-0.00101862

>  <SCORE.SYSTEM.VDW>
-4.58669

>  <SCORE.SYSTEM.norm>
-1.64846

>  <SCORE.heavy>
12

>  <SCORE.norm>
-4.70052

$$$$
P107971104
 OpenBabel12072022113D
libRbt.so/2013.1/901 2013/11/27
 15 15  0  0  0  0  0  0  0  0999 V2000
  -30.6708   18.5413  -18.3250 C   0  0  0  0  0  0  0  0  0  0  0  0
  -29.8168   17.3629  -17.8661 C   0  0  0  0  0  0  0  0  0  0  0  0
  -29.4253   17.5216  -16.3922 C   0  0  1  0  0  0  0  0  0  0  0  0
  -30.6859   17.7780  -15.5602 C   0  0  0  0  0  0  0  0  0  0  0  0
  -31.3877   18.9299  -16.0389 O   0  0  0  0  0  0  0  0  0  0  0  0
  -31.8436   18.7631  -17.3802 C   0  0  0  0  0  0  0  0  0  0  0  0
  -28.6913   16.2946  -15.8685 C   0  0  0  0  0  0  0  0  0  0  0  0
  -29.1138   15.6210  -14.9258 O   0  0  0  0  0  0  0  0  0  0  0  0
  -27.5047   15.9140  -16.4502 N   0  0  0  0  0  0  0  0  0  0  0  0
  -26.7718   14.7864  -16.1824 C   0  0  0  0  0  0  0  0  0  0  0  0
  -27.0629   13.8732  -15.4264 O   0  0  0  0  0  0  0  0  0  0  0  0
  -25.5806   14.7752  -16.8466 N   0  0  0  0  0  0  0  0  0  0  0  0
  -27.4645   16.2049  -17.4154 H   0  0  0  0  0  0  0  0  0  0  0  0
  -25.5531   15.1519  -17.7839 H   0  0  0  0  0  0  0  0  0  0  0  0
  -24.7979   15.0532  -16.2640 H   0  0  0  0  0  0  0  0  0  0  0  0
  1  2  1  0  0  0  0
  1  6  1  0  0  0  0
  2  3  1  0  0  0  0
  3  4  1  0  0  0  0
  3  7  1  1  0  0  0
  4  5  1  0  0  0  0
  5  6  1  0  0  0  0
  7  8  2  0  0  0  0
  7  9  1  0  0  0  0
  9 10  1  0  0  0  0
  9 13  1  0  0  0  0
 10 11  2  0  0  0  0
 10 12  1  0  0  0  0
 12 14  1  0  0  0  0
 12 15  1  0  0  0  0
M  END
>  <CHROM.0>
-60.33044154,-60.50475743,-64.79874292,-41.78767639,-173.90985175,-56.25005075
-66.54794902,-57.29569956,-167.92384425

>  <CHROM.1>
-120.01367455,-174.28342007,3.91724232,-36.96354091,-29.02570914,16.66239986
-16.42749793,-2.70476534,-0.59721524,2.03689330

>  <Name>
P107971104

>  <RI>
0

>  <Rbt.Current_Directory>
/home/fstefaniak/projects/zuza/docking/adenine/4TZX

>  <Rbt.Executable>
rbdock ($Id: //depot/dev/client3/rdock/2013.1/src/exe/rbdock.cxx#4 $)

>  <Rbt.Library>
libRbt.so (2013.1, Build901 2013/11/27)

>  <Rbt.Parameter_File>
/home/fstefaniak/progs/rDock//data/scripts/dock_solv.prm

>  <Rbt.Receptor>
4tzx.prm

>  <SCORE>
-56.3178

>  <SCORE.INTER>
-35.5565

>  <SCORE.INTER.CONST>
1

>  <SCORE.INTER.POLAR>
-4.56303

>  <SCORE.INTER.ROT>
4

>  <SCORE.INTER.SOLV>
13.1616

>  <SCORE.INTER.VDW>
-19.1481

>  <SCORE.INTER.norm>
-2.96304

>  <SCORE.INTRA>
0.373233

>  <SCORE.INTRA.DIHEDRAL>
0.023258

>  <SCORE.INTRA.DIHEDRAL.0>
1.99833

>  <SCORE.INTRA.POLAR>
0

>  <SCORE.INTRA.POLAR.0>
0

>  <SCORE.INTRA.REPUL>
0

>  <SCORE.INTRA.REPUL.0>
0

>  <SCORE.INTRA.SOLV>
-0.211496

>  <SCORE.INTRA.SOLV.lig_0>
-18.0217

>  <SCORE.INTRA.VDW>
0.467352

>  <SCORE.INTRA.VDW.0>
-0.38228

>  <SCORE.INTRA.norm>
0.0311028

>  <SCORE.RESTR>
0

>  <SCORE.RESTR.CAVITY>
0

>  <SCORE.RESTR.norm>
0

>  <SCORE.SYSTEM>
-21.1346

>  <SCORE.SYSTEM.CONST>
0

>  <SCORE.SYSTEM.DIHEDRAL>
4.80162

>  <SCORE.SYSTEM.POLAR>
-3.0831

>  <SCORE.SYSTEM.SOLV>
0.0167328

>  <SCORE.SYSTEM.VDW>
-5.41884

>  <SCORE.SYSTEM.norm>
-1.76121

>  <SCORE.heavy>
12

>  <SCORE.norm>
-4.69315

$$$$
P107971175
 OpenBabel12072022113D
libRbt.so/2013.1/901 2013/11/27
 14 14  0  0  0  0  0  0  0  0999 V2000
  -28.1101   13.6922  -17.5534 C   0  0  0  0  0  0  0  0  0  0  0  0
  -27.9268   12.6148  -18.5975 C   0  0  0  0  0  0  0  0  0  0  0  0
  -28.0089   11.3672  -17.9012 O   0  0  0  0  0  0  0  0  0  0  0  0
  -27.7567   11.6056  -16.5043 C   0  0  0  0  0  0  0  0  0  0  0  0
  -27.4494   13.0848  -16.3308 C   0  0  1  0  0  0  0  0  0  0  0  0
  -25.9476   13.3410  -16.2879 C   0  0  0  0  0  0  0  0  0  0  0  0
  -25.1151   12.4475  -16.4616 O   0  0  0  0  0  0  0  0  0  0  0  0
  -25.4845   14.6238  -16.1032 N   0  0  0  0  0  0  0  0  0  0  0  0
  -26.1640   15.8121  -16.1777 C   0  0  0  0  0  0  0  0  0  0  0  0
  -27.3748   15.9557  -16.2548 O   0  0  0  0  0  0  0  0  0  0  0  0
  -25.3478   16.8971  -16.0745 N   0  0  0  0  0  0  0  0  0  0  0  0
  -24.4790   14.6743  -16.0826 H   0  0  0  0  0  0  0  0  0  0  0  0
  -25.6513   17.7906  -16.4331 H   0  0  0  0  0  0  0  0  0  0  0  0
  -24.8357   16.9415  -15.2005 H   0  0  0  0  0  0  0  0  0  0  0  0
  1  2  1  0  0  0  0
  1  5  1  0  0  0  0
  2  3  1  0  0  0  0
  3  4  1  0  0  0  0
  4  5  1  0  0  0  0
  5  6  1  6  0  0  0
  6  7  2  0  0  0  0
  6  8  1  0  0  0  0
  8  9  1  0  0  0  0
  8 12  1  0  0  0  0
  9 10  2  0  0  0  0
  9 11  1  0  0  0  0
 11 13  1  0  0  0  0
 11 14  1  0  0  0  0
M  END
>  <CHROM.0>
-62.20216721,-174.88513434,-72.18048659,-43.24430310,-57.11528670,-64.03393460
-170.96133211,-173.58737765,-168.92648614

>  <CHROM.1>
-109.78940697,158.20354538,-26.77164718,13.78318820,-16.75417843,2.01798178
0.45647865,-3.02085387

>  <Name>
P107971175

>  <RI>
0

>  <Rbt.Current_Directory>
/home/fstefaniak/projects/zuza/docking/adenine/4TZX

>  <Rbt.Executable>
rbdock ($Id: //depot/dev/client3/rdock/2013.1/src/exe/rbdock.cxx#4 $)

>  <Rbt.Library>
libRbt.so (2013.1, Build901 2013/11/27)

>  <Rbt.Parameter_File>
/home/fstefaniak/progs/rDock//data/scripts/dock_solv.prm

>  <Rbt.Receptor>
4tzx.prm

>  <SCORE>
-41.0971

>  <SCORE.INTER>
-21.8833

>  <SCORE.INTER.CONST>
1

>  <SCORE.INTER.POLAR>
-2.83761

>  <SCORE.INTER.ROT>
2

>  <SCORE.INTER.SOLV>
9.31699

>  <SCORE.INTER.VDW>
-13.1692

>  <SCORE.INTER.norm>
-1.98939

>  <SCORE.INTRA>
1.04229

>  <SCORE.INTRA.DIHEDRAL>
0.0805145

>  <SCORE.INTRA.DIHEDRAL.0>
1.06901

>  <SCORE.INTRA.POLAR>
0

>  <SCORE.INTRA.POLAR.0>
0

>  <SCORE.INTRA.REPUL>
0

>  <SCORE.INTRA.REPUL.0>
0

>  <SCORE.INTRA.SOLV>
0.19358

>  <SCORE.INTRA.SOLV.lig_0>
-19.2806

>  <SCORE.INTRA.VDW>
0.90524

>  <SCORE.INTRA.VDW.0>
-0.344215

>  <SCORE.INTRA.norm>
0.0947534

>  <SCORE.RESTR>
0.208443

>  <SCORE.RESTR.CAVITY>
0.208443

>  <SCORE.RESTR.norm>
0.0189494

>  <SCORE.SYSTEM>
-20.4645

>  <SCORE.SYSTEM.CONST>
0

>  <SCORE.SYSTEM.DIHEDRAL>
5.3921

>  <SCORE.SYSTEM.POLAR>
-3.02254

>  <SCORE.SYSTEM.SOLV>
-0.0148548

>  <SCORE.SYSTEM.VDW>
-5.36029

>  <SCORE.SYSTEM.norm>
-1.86041

>  <SCORE.heavy>
11

>  <SCORE.norm>
-3.7361

$$$$
P107971175
 OpenBabel12072022113D
libRbt.so/2013.1/901 2013/11/27
 14 14  0  0  0  0  0  0  0  0999 V2000
  -25.9055   11.4793  -15.9254 C   0  0  0  0  0  0  0  0  0  0  0  0
  -27.0849   11.3798  -14.9854 C   0  0  0  0  0  0  0  0  0  0  0  0
  -28.0299   12.3598  -15.4266 O   0  0  0  0  0  0  0  0  0  0  0  0
  -27.3381   13.3322  -16.2313 C   0  0  0  0  0  0  0  0  0  0  0  0
  -25.8638   12.9605  -16.2490 C   0  0  1  0  0  0  0  0  0  0  0  0
  -25.0741   13.7629  -15.2216 C   0  0  0  0  0  0  0  0  0  0  0  0
  -24.4692   13.2333  -14.2861 O   0  0  0  0  0  0  0  0  0  0  0  0
  -24.9764   15.1289  -15.3590 N   0  0  0  0  0  0  0  0  0  0  0  0
  -25.2905   15.9187  -16.4346 C   0  0  0  0  0  0  0  0  0  0  0  0
  -25.8923   15.5745  -17.4405 O   0  0  0  0  0  0  0  0  0  0  0  0
  -24.9301   17.2201  -16.2601 N   0  0  0  0  0  0  0  0  0  0  0  0
  -24.4406   15.5559  -14.6210 H   0  0  0  0  0  0  0  0  0  0  0  0
  -24.8168   17.5899  -15.3277 H   0  0  0  0  0  0  0  0  0  0  0  0
  -24.2470   17.5487  -16.9337 H   0  0  0  0  0  0  0  0  0  0  0  0
  1  2  1  0  0  0  0
  1  5  1  0  0  0  0
  2  3  1  0  0  0  0
  3  4  1  0  0  0  0
  4  5  1  0  0  0  0
  5  6  1  1  0  0  0
  6  7  2  0  0  0  0
  6  8  1  0  0  0  0
  8  9  1  0  0  0  0
  8 12  1  0  0  0  0
  9 10  2  0  0  0  0
  9 11  1  0  0  0  0
 11 13  1  0  0  0  0
 11 14  1  0  0  0  0
M  END
>  <CHROM.0>
-58.34522289,50.81718136,-67.69595666,-42.78958382,-53.36743569,-57.70243079
-67.19346891,-57.87913092,-168.69669794

>  <CHROM.1>
4.46803536,-23.30947647,-25.89664027,13.88332734,-15.79179617,-2.01729125
-0.55169724,-0.45375313

>  <Name>
P107971175

>  <RI>
0

>  <Rbt.Current_Directory>
/home/fstefaniak/projects/zuza/docking/adenine/4TZX

>  <Rbt.Executable>
rbdock ($Id: //depot/dev/client3/rdock/2013.1/src/exe/rbdock.cxx#4 $)

>  <Rbt.Library>
libRbt.so (2013.1, Build901 2013/11/27)

>  <Rbt.Parameter_File>
/home/fstefaniak/progs/rDock//data/scripts/dock_solv.prm

>  <Rbt.Receptor>
4tzx.prm

>  <SCORE>
-40.0338

>  <SCORE.INTER>
-20.183

>  <SCORE.INTER.CONST>
1

>  <SCORE.INTER.POLAR>
-3.78416

>  <SCORE.INTER.ROT>
2

>  <SCORE.INTER.SOLV>
11.4985

>  <SCORE.INTER.VDW>
-9.60764

>  <SCORE.INTER.norm>
-1.83482

>  <SCORE.INTRA>
0.0941107

>  <SCORE.INTRA.DIHEDRAL>
-0.0602303

>  <SCORE.INTRA.DIHEDRAL.0>
1.06901

>  <SCORE.INTRA.POLAR>
0

>  <SCORE.INTRA.POLAR.0>
0

>  <SCORE.INTRA.REPUL>
0

>  <SCORE.INTRA.REPUL.0>
0

>  <SCORE.INTRA.SOLV>
0.0528527

>  <SCORE.INTRA.SOLV.lig_0>
-19.2806

>  <SCORE.INTRA.VDW>
0.0977995

>  <SCORE.INTRA.VDW.0>
-0.344215

>  <SCORE.INTRA.norm>
0.00855552

>  <SCORE.RESTR>
0.276992

>  <SCORE.RESTR.CAVITY>
0.276992

>  <SCORE.RESTR.norm>
0.0251811

>  <SCORE.SYSTEM>
-20.2219

>  <SCORE.SYSTEM.CONST>
0

>  <SCORE.SYSTEM.DIHEDRAL>
5.1682

>  <SCORE.SYSTEM.POLAR>
-3.11692

>  <SCORE.SYSTEM.SOLV>
0.295547

>  <SCORE.SYSTEM.VDW>
-4.91274

>  <SCORE.SYSTEM.norm>
-1.83835

>  <SCORE.heavy>
11

>  <SCORE.norm>
-3.63944

$$$$
P107971175
 OpenBabel12072022113D
libRbt.so/2013.1/901 2013/11/27
 14 14  0  0  0  0  0  0  0  0999 V2000
  -28.1564   13.7963  -17.4087 C   0  0  0  0  0  0  0  0  0  0  0  0
  -28.0097   12.7158  -18.4555 C   0  0  0  0  0  0  0  0  0  0  0  0
  -28.1252   11.4699  -17.7609 O   0  0  0  0  0  0  0  0  0  0  0  0
  -27.8596   11.6983  -16.3649 C   0  0  0  0  0  0  0  0  0  0  0  0
  -27.5081   13.1674  -16.1903 C   0  0  1  0  0  0  0  0  0  0  0  0
  -25.9992   13.3792  -16.1541 C   0  0  0  0  0  0  0  0  0  0  0  0
  -25.1942   12.4563  -16.3013 O   0  0  0  0  0  0  0  0  0  0  0  0
  -25.4975   14.6523  -16.0065 N   0  0  0  0  0  0  0  0  0  0  0  0
  -26.1408   15.8579  -16.1160 C   0  0  0  0  0  0  0  0  0  0  0  0
  -27.3467   16.0357  -16.1979 O   0  0  0  0  0  0  0  0  0  0  0  0
  -25.2921   16.9202  -16.0440 N   0  0  0  0  0  0  0  0  0  0  0  0
  -24.4909   14.6729  -15.9869 H   0  0  0  0  0  0  0  0  0  0  0  0
  -25.5557   17.8033  -16.4560 H   0  0  0  0  0  0  0  0  0  0  0  0
  -24.8031   16.9932  -15.1587 H   0  0  0  0  0  0  0  0  0  0  0  0
  1  2  1  0  0  0  0
  1  5  1  0  0  0  0
  2  3  1  0  0  0  0
  3  4  1  0  0  0  0
  4  5  1  0  0  0  0
  5  6  1  6  0  0  0
  6  7  2  0  0  0  0
  6  8  1  0  0  0  0
  8  9  1  0  0  0  0
  8 12  1  0  0  0  0
  9 10  2  0  0  0  0
  9 11  1  0  0  0  0
 11 13  1  0  0  0  0
 11 14  1  0  0  0  0
M  END
>  <CHROM.0>
-60.35771010,-175.62563714,59.61706859,-42.75578036,-61.81159844,-64.77628983
56.44676058,-62.42591126,-168.88464486

>  <CHROM.1>
-111.57975448,156.15200236,-26.81162140,13.84712510,-16.64181883,2.05610095
0.46483297,-3.06247988

>  <Name>
P107971175

>  <RI>
0

>  <Rbt.Current_Directory>
/home/fstefaniak/projects/zuza/docking/adenine/4TZX

>  <Rbt.Executable>
rbdock ($Id: //depot/dev/client3/rdock/2013.1/src/exe/rbdock.cxx#4 $)

>  <Rbt.Library>
libRbt.so (2013.1, Build901 2013/11/27)

>  <Rbt.Parameter_File>
/home/fstefaniak/progs/rDock//data/scripts/dock_solv.prm

>  <Rbt.Receptor>
4tzx.prm

>  <SCORE>
-39.4696

>  <SCORE.INTER>
-21.9168

>  <SCORE.INTER.CONST>
1

>  <SCORE.INTER.POLAR>
-2.87551

>  <SCORE.INTER.ROT>
2

>  <SCORE.INTER.SOLV>
9.24326

>  <SCORE.INTER.VDW>
-13.0406

>  <SCORE.INTER.norm>
-1.99243

>  <SCORE.INTRA>
1.33165

>  <SCORE.INTRA.DIHEDRAL>
0.0396354

>  <SCORE.INTRA.DIHEDRAL.0>
1.06901

>  <SCORE.INTRA.POLAR>
0

>  <SCORE.INTRA.POLAR.0>
0

>  <SCORE.INTRA.REPUL>
0

>  <SCORE.INTRA.REPUL.0>
0

>  <SCORE.INTRA.SOLV>
0.216509

>  <SCORE.INTRA.SOLV.lig_0>
-19.2806

>  <SCORE.INTRA.VDW>
1.20358

>  <SCORE.INTRA.VDW.0>
-0.344215

>  <SCORE.INTRA.norm>
0.121059

>  <SCORE.RESTR>
0.146362

>  <SCORE.RESTR.CAVITY>
0.146362

>  <SCORE.RESTR.norm>
0.0133057

>  <SCORE.SYSTEM>
-19.0309

>  <SCORE.SYSTEM.CONST>
0

>  <SCORE.SYSTEM.DIHEDRAL>
4.29655

>  <SCORE.SYSTEM.POLAR>
-3.03461

>  <SCORE.SYSTEM.SOLV>
0.0324368

>  <SCORE.SYSTEM.VDW>
-4.01487

>  <SCORE.SYSTEM.norm>
-1.73008

>  <SCORE.heavy>
11

>  <SCORE.norm>
-3.58815

$$$$
P108001464
 OpenBabel12072022113D
libRbt.so/2013.1/901 2013/11/27
 18 19  0  0  0  0  0  0  0  0999 V2000
  -30.3080   18.1643  -18.8419 C   0  0  0  0  0  0  0  0  0  0  0  0
  -31.6335   18.5925  -18.6598 C   0  0  0  0  0  0  0  0  0  0  0  0
  -32.2090   18.5969  -17.3875 C   0  0  0  0  0  0  0  0  0  0  0  0
  -31.4344   18.1765  -16.3257 C   0  0  0  0  0  0  0  0  0  0  0  0
  -30.1290   17.7420  -16.4969 C   0  0  0  0  0  0  0  0  0  0  0  0
  -29.5450   17.7299  -17.7546 C   0  0  0  0  0  0  0  0  0  0  0  0
  -29.5755   17.2982  -15.1904 C   0  0  1  0  0  0  0  0  0  0  0  0
  -30.6630   17.8778  -14.2642 C   0  0  0  0  0  0  0  0  0  0  0  0
  -31.8731   18.1293  -15.0294 O   0  0  0  0  0  0  0  0  0  0  0  0
  -29.5224   15.8453  -15.1378 N   0  0  0  0  0  0  0  0  0  0  0  0
  -28.5729   15.1568  -15.8203 C   0  0  0  0  0  0  0  0  0  0  0  0
  -27.3812   15.5928  -16.0819 N   0  0  0  0  0  0  0  0  0  0  0  0
  -26.6425   14.6213  -16.7782 O   0  0  0  0  0  0  0  0  0  0  0  0
  -29.0456   13.9360  -16.1782 N   0  0  0  0  0  0  0  0  0  0  0  0
  -30.4319   15.4018  -15.1721 H   0  0  0  0  0  0  0  0  0  0  0  0
  -26.8040   14.8723  -17.7064 H   0  0  0  0  0  0  0  0  0  0  0  0
  -29.6104   13.5218  -15.4470 H   0  0  0  0  0  0  0  0  0  0  0  0
  -28.2504   13.3381  -16.3921 H   0  0  0  0  0  0  0  0  0  0  0  0
  1  2  2  0  0  0  0
  1  6  1  0  0  0  0
  2  3  1  0  0  0  0
  3  4  2  0  0  0  0
  4  5  1  0  0  0  0
  4  9  1  0  0  0  0
  5  6  2  0  0  0  0
  5  7  1  0  0  0  0
  7  8  1  0  0  0  0
  7 10  1  6  0  0  0
  8  9  1  0  0  0  0
 10 11  1  0  0  0  0
 10 15  1  0  0  0  0
 11 12  2  0  0  0  0
 11 14  1  0  0  0  0
 12 13  1  0  0  0  0
 13 16  1  0  0  0  0
 14 17  1  0  0  0  0
 14 18  1  0  0  0  0
M  END
>  <CHROM.0>
-59.22953708,-61.71492471,-65.42207417,-42.20210190,-175.32418965,-64.74659560
-66.34137111,-62.06769634,-168.16467808

>  <CHROM.1>
75.13838293,30.48758071,-39.27720937,93.37376239,-29.83484270,16.86303042
-16.38600443,-2.80431761,-0.72477602,1.84379206

>  <Name>
P108001464

>  <RI>
0

>  <Rbt.Current_Directory>
/home/fstefaniak/projects/zuza/docking/adenine/4TZX

>  <Rbt.Executable>
rbdock ($Id: //depot/dev/client3/rdock/2013.1/src/exe/rbdock.cxx#4 $)

>  <Rbt.Library>
libRbt.so (2013.1, Build901 2013/11/27)

>  <Rbt.Parameter_File>
/home/fstefaniak/progs/rDock//data/scripts/dock_solv.prm

>  <Rbt.Receptor>
4tzx.prm

>  <SCORE>
-56.449

>  <SCORE.INTER>
-34.3057

>  <SCORE.INTER.CONST>
1

>  <SCORE.INTER.POLAR>
-3.71296

>  <SCORE.INTER.ROT>
3

>  <SCORE.INTER.SOLV>
14.1575

>  <SCORE.INTER.VDW>
-20.8131

>  <SCORE.INTER.norm>
-2.45041

>  <SCORE.INTRA>
-0.870473

>  <SCORE.INTRA.DIHEDRAL>
-2.3316

>  <SCORE.INTRA.DIHEDRAL.0>
3.5993

>  <SCORE.INTRA.POLAR>
0.137215

>  <SCORE.INTRA.POLAR.0>
-0.179787

>  <SCORE.INTRA.REPUL>
0

>  <SCORE.INTRA.REPUL.0>
0

>  <SCORE.INTRA.SOLV>
0.361567

>  <SCORE.INTRA.SOLV.lig_0>
-13.9407

>  <SCORE.INTRA.VDW>
-0.351987

>  <SCORE.INTRA.VDW.0>
-0.739286

>  <SCORE.INTRA.norm>
-0.0621767

>  <SCORE.RESTR>
0

>  <SCORE.RESTR.CAVITY>
0

>  <SCORE.RESTR.norm>
0

>  <SCORE.SYSTEM>
-21.2729

>  <SCORE.SYSTEM.CONST>
0

>  <SCORE.SYSTEM.DIHEDRAL>
4.70418

>  <SCORE.SYSTEM.POLAR>
-3.06428

>  <SCORE.SYSTEM.SOLV>
-0.00599196

>  <SCORE.SYSTEM.VDW>
-5.53373

>  <SCORE.SYSTEM.norm>
-1.51949

>  <SCORE.heavy>
14

>  <SCORE.norm>
-4.03207

$$$$
P108001464
 OpenBabel12072022113D
libRbt.so/2013.1/901 2013/11/27
 18 19  0  0  0  0  0  0  0  0999 V2000
  -30.8991   19.5194  -17.8671 C   0  0  0  0  0  0  0  0  0  0  0  0
  -30.6271   18.7402  -19.0039 C   0  0  0  0  0  0  0  0  0  0  0  0
  -30.0886   17.4586  -18.8731 C   0  0  0  0  0  0  0  0  0  0  0  0
  -29.8423   16.9873  -17.5998 C   0  0  0  0  0  0  0  0  0  0  0  0
  -30.0972   17.7527  -16.4724 C   0  0  0  0  0  0  0  0  0  0  0  0
  -30.6298   19.0280  -16.5868 C   0  0  0  0  0  0  0  0  0  0  0  0
  -29.6763   17.0068  -15.2572 C   0  0  1  0  0  0  0  0  0  0  0  0
  -29.4786   15.6156  -15.8910 C   0  0  0  0  0  0  0  0  0  0  0  0
  -29.3158   15.7525  -17.3290 O   0  0  0  0  0  0  0  0  0  0  0  0
  -28.4345   17.5583  -14.7374 N   0  0  0  0  0  0  0  0  0  0  0  0
  -28.3679   18.0626  -13.4793 C   0  0  0  0  0  0  0  0  0  0  0  0
  -27.3603   18.7146  -12.9913 N   0  0  0  0  0  0  0  0  0  0  0  0
  -27.6275   19.1206  -11.6729 O   0  0  0  0  0  0  0  0  0  0  0  0
  -29.5172   17.7990  -12.8073 N   0  0  0  0  0  0  0  0  0  0  0  0
  -27.9193   18.1110  -15.4114 H   0  0  0  0  0  0  0  0  0  0  0  0
  -27.5640   18.2784  -11.1859 H   0  0  0  0  0  0  0  0  0  0  0  0
  -30.0225   18.6463  -12.5790 H   0  0  0  0  0  0  0  0  0  0  0  0
  -29.2791   17.2900  -11.9590 H   0  0  0  0  0  0  0  0  0  0  0  0
  1  2  2  0  0  0  0
  1  6  1  0  0  0  0
  2  3  1  0  0  0  0
  3  4  2  0  0  0  0
  4  5  1  0  0  0  0
  4  9  1  0  0  0  0
  5  6  2  0  0  0  0
  5  7  1  0  0  0  0
  7  8  1  0  0  0  0
  7 10  1  6  0  0  0
  8  9  1  0  0  0  0
 10 11  1  0  0  0  0
 10 15  1  0  0  0  0
 11 12  2  0  0  0  0
 11 14  1  0  0  0  0
 12 13  1  0  0  0  0
 13 16  1  0  0  0  0
 14 17  1  0  0  0  0
 14 18  1  0  0  0  0
M  END
>  <CHROM.0>
-58.17003042,58.24708939,63.06452011,-42.81552195,-57.13733910,-171.46548823
56.07954762,-58.15081093,-170.11879938

>  <CHROM.1>
120.47959389,-171.24184121,-114.92606825,72.95730077,-29.36613807,17.78417257
-15.61900612,2.61589135,1.13521663,-2.69329553

>  <Name>
P108001464

>  <RI>
0

>  <Rbt.Current_Directory>
/home/fstefaniak/projects/zuza/docking/adenine/4TZX

>  <Rbt.Executable>
rbdock ($Id: //depot/dev/client3/rdock/2013.1/src/exe/rbdock.cxx#4 $)

>  <Rbt.Library>
libRbt.so (2013.1, Build901 2013/11/27)

>  <Rbt.Parameter_File>
/home/fstefaniak/progs/rDock//data/scripts/dock_solv.prm

>  <Rbt.Receptor>
4tzx.prm

>  <SCORE>
-56.1618

>  <SCORE.INTER>
-40.0001

>  <SCORE.INTER.CONST>
1

>  <SCORE.INTER.POLAR>
-4.93202

>  <SCORE.INTER.ROT>
3

>  <SCORE.INTER.SOLV>
16.0826

>  <SCORE.INTER.VDW>
-21.1875

>  <SCORE.INTER.norm>
-2.85715

>  <SCORE.INTRA>
1.77128

>  <SCORE.INTRA.DIHEDRAL>
-0.444252

>  <SCORE.INTRA.DIHEDRAL.0>
3.5993

>  <SCORE.INTRA.POLAR>
0.179787

>  <SCORE.INTRA.POLAR.0>
-0.179787

>  <SCORE.INTRA.REPUL>
0

>  <SCORE.INTRA.REPUL.0>
0

>  <SCORE.INTRA.SOLV>
0.367245

>  <SCORE.INTRA.SOLV.lig_0>
-13.9407

>  <SCORE.INTRA.VDW>
1.19851

>  <SCORE.INTRA.VDW.0>
-0.739286

>  <SCORE.INTRA.norm>
0.12652

>  <SCORE.RESTR>
0

>  <SCORE.RESTR.CAVITY>
0

>  <SCORE.RESTR.norm>
0

>  <SCORE.SYSTEM>
-17.9329

>  <SCORE.SYSTEM.CONST>
0

>  <SCORE.SYSTEM.DIHEDRAL>
4.40322

>  <SCORE.SYSTEM.POLAR>
-3.02205

>  <SCORE.SYSTEM.SOLV>
0.0395519

>  <SCORE.SYSTEM.VDW>
-3.36272

>  <SCORE.SYSTEM.norm>
-1.28092

>  <SCORE.heavy>
14

>  <SCORE.norm>
-4.01155

$$$$
P108001464
 OpenBabel12072022113D
libRbt.so/2013.1/901 2013/11/27
 18 19  0  0  0  0  0  0  0  0999 V2000
  -30.2715   18.1344  -18.9198 C   0  0  0  0  0  0  0  0  0  0  0  0
  -31.6110   18.5357  -18.7857 C   0  0  0  0  0  0  0  0  0  0  0  0
  -32.2202   18.5652  -17.5296 C   0  0  0  0  0  0  0  0  0  0  0  0
  -31.4647   18.1965  -16.4353 C   0  0  0  0  0  0  0  0  0  0  0  0
  -30.1454   17.7887  -16.5588 C   0  0  0  0  0  0  0  0  0  0  0  0
  -29.5279   17.7522  -17.7999 C   0  0  0  0  0  0  0  0  0  0  0  0
  -29.6168   17.3988  -15.2252 C   0  0  1  0  0  0  0  0  0  0  0  0
  -30.7419   17.9801  -14.3462 C   0  0  0  0  0  0  0  0  0  0  0  0
  -31.9367   18.1785  -15.1500 O   0  0  0  0  0  0  0  0  0  0  0  0
  -29.5310   15.9499  -15.1257 N   0  0  0  0  0  0  0  0  0  0  0  0
  -28.5517   15.2635  -15.7668 C   0  0  0  0  0  0  0  0  0  0  0  0
  -27.3550   15.7073  -15.9893 N   0  0  0  0  0  0  0  0  0  0  0  0
  -26.5835   14.7358  -16.6492 O   0  0  0  0  0  0  0  0  0  0  0  0
  -29.0010   14.0354  -16.1301 N   0  0  0  0  0  0  0  0  0  0  0  0
  -30.4291   15.4840  -15.1643 H   0  0  0  0  0  0  0  0  0  0  0  0
  -26.1112   14.3153  -15.9071 H   0  0  0  0  0  0  0  0  0  0  0  0
  -29.5254   13.5913  -15.3865 H   0  0  0  0  0  0  0  0  0  0  0  0
  -28.1970   13.4658  -16.3846 H   0  0  0  0  0  0  0  0  0  0  0  0
  1  2  2  0  0  0  0
  1  6  1  0  0  0  0
  2  3  1  0  0  0  0
  3  4  2  0  0  0  0
  4  5  1  0  0  0  0
  4  9  1  0  0  0  0
  5  6  2  0  0  0  0
  5  7  1  0  0  0  0
  7  8  1  0  0  0  0
  7 10  1  6  0  0  0
  8  9  1  0  0  0  0
 10 11  1  0  0  0  0
 10 15  1  0  0  0  0
 11 12  2  0  0  0  0
 11 14  1  0  0  0  0
 12 13  1  0  0  0  0
 13 16  1  0  0  0  0
 14 17  1  0  0  0  0
 14 18  1  0  0  0  0
M  END
>  <CHROM.0>
-60.08018612,58.53441599,-66.68913432,-43.16444749,-174.92285224,-58.99560684
-67.56520679,-175.00505527,-167.86422049

>  <CHROM.1>
74.80366005,32.26408881,-43.94704636,-96.04083512,-29.83207562,16.91674497
-16.40644448,-2.77916376,-0.69588823,1.82078610

>  <Name>
P108001464

>  <RI>
0

>  <Rbt.Current_Directory>
/home/fstefaniak/projects/zuza/docking/adenine/4TZX

>  <Rbt.Executable>
rbdock ($Id: //depot/dev/client3/rdock/2013.1/src/exe/rbdock.cxx#4 $)

>  <Rbt.Library>
libRbt.so (2013.1, Build901 2013/11/27)

>  <Rbt.Parameter_File>
/home/fstefaniak/progs/rDock//data/scripts/dock_solv.prm

>  <Rbt.Receptor>
4tzx.prm

>  <SCORE>
-55.8621

>  <SCORE.INTER>
-34.6538

>  <SCORE.INTER.CONST>
1

>  <SCORE.INTER.POLAR>
-4.02141

>  <SCORE.INTER.ROT>
3

>  <SCORE.INTER.SOLV>
13.9425

>  <SCORE.INTER.VDW>
-19.9453

>  <SCORE.INTER.norm>
-2.47527

>  <SCORE.INTRA>
-0.815538

>  <SCORE.INTRA.DIHEDRAL>
-2.31989

>  <SCORE.INTRA.DIHEDRAL.0>
3.5993

>  <SCORE.INTRA.POLAR>
0.151922

>  <SCORE.INTRA.POLAR.0>
-0.179787

>  <SCORE.INTRA.REPUL>
0

>  <SCORE.INTRA.REPUL.0>
0

>  <SCORE.INTRA.SOLV>
0.364891

>  <SCORE.INTRA.SOLV.lig_0>
-13.9407

>  <SCORE.INTRA.VDW>
-0.354576

>  <SCORE.INTRA.VDW.0>
-0.739286

>  <SCORE.INTRA.norm>
-0.0582527

>  <SCORE.RESTR>
0

>  <SCORE.RESTR.CAVITY>
0

>  <SCORE.RESTR.norm>
0

>  <SCORE.SYSTEM>
-20.3928

>  <SCORE.SYSTEM.CONST>
0

>  <SCORE.SYSTEM.DIHEDRAL>
4.74681

>  <SCORE.SYSTEM.POLAR>
-3.04743

>  <SCORE.SYSTEM.SOLV>
-0.0637934

>  <SCORE.SYSTEM.VDW>
-4.99808

>  <SCORE.SYSTEM.norm>
-1.45663

>  <SCORE.heavy>
14

>  <SCORE.norm>
-3.99015

$$$$
P108184382
 OpenBabel12072022113D
libRbt.so/2013.1/901 2013/11/27
 15 16  0  0  0  0  0  0  0  0999 V2000
  -24.7773   16.5063  -16.9927 C   0  0  0  0  0  0  0  0  0  0  0  0
  -25.4566   15.2800  -17.1753 C   0  0  0  0  0  0  0  0  0  0  0  0
  -26.4380   15.2239  -16.2075 C   0  0  0  0  0  0  0  0  0  0  0  0
  -26.3935   16.3577  -15.4410 O   0  0  0  0  0  0  0  0  0  0  0  0
  -25.3787   17.1221  -15.9220 C   0  0  0  0  0  0  0  0  0  0  0  0
  -27.4877   14.2011  -15.8798 C   0  0  1  0  0  0  0  0  0  0  0  0
  -28.6314   14.2237  -16.8895 C   0  0  0  0  0  0  0  0  0  0  0  0
  -28.0740   13.4768  -18.0763 N   0  3  0  0  0  0  0  0  0  0  0  0
  -28.7843   12.9693  -18.6106 H   0  0  0  0  0  0  0  0  0  0  0  0
  -27.6141   14.1628  -18.6905 H   0  0  0  0  0  0  0  0  0  0  0  0
  -26.9852   12.5580  -17.5523 C   0  0  0  0  0  0  0  0  0  0  0  0
  -27.0359   12.7596  -16.0590 C   0  0  1  0  0  0  0  0  0  0  0  0
  -25.7363   12.3366  -15.4250 C   0  0  0  0  0  0  0  0  0  0  0  0
  -25.2125   11.3221  -15.9521 O   0  0  0  0  0  0  0  0  0  0  0  0
  -25.3437   13.0759  -14.4861 O   0  5  0  0  0  0  0  0  0  0  0  0
  1  2  1  0  0  0  0
  1  5  2  0  0  0  0
  2  3  2  0  0  0  0
  3  4  1  0  0  0  0
  4  5  1  0  0  0  0
  6  7  1  0  0  0  0
  6 12  1  0  0  0  0
  6  3  1  6  0  0  0
  7  8  1  0  0  0  0
  8  9  1  0  0  0  0
  8 10  1  0  0  0  0
  8 11  1  0  0  0  0
 11 12  1  0  0  0  0
 12 13  1  6  0  0  0
 13 14  2  0  0  0  0
 13 15  1  0  0  0  0
M  CHG  2   8   1  15  -1
M  END
>  <CHROM.0>
-60.47913924,-177.35550876,-65.38650478,-43.11102634,-58.25857298,-60.82242071
-68.33898411,-59.14925689,-168.14329101

>  <CHROM.1>
-74.53052109,-157.73228321,-26.39338140,14.14311706,-16.31315970,-1.34270838
0.62880499,3.02276666

>  <Name>
P108184382

>  <RI>
0

>  <Rbt.Current_Directory>
/home/fstefaniak/projects/zuza/docking/adenine/4TZX

>  <Rbt.Executable>
rbdock ($Id: //depot/dev/client3/rdock/2013.1/src/exe/rbdock.cxx#4 $)

>  <Rbt.Library>
libRbt.so (2013.1, Build901 2013/11/27)

>  <Rbt.Parameter_File>
/home/fstefaniak/progs/rDock//data/scripts/dock_solv.prm

>  <Rbt.Receptor>
4tzx.prm

>  <SCORE>
-46.8379

>  <SCORE.INTER>
-24.8312

>  <SCORE.INTER.CONST>
1

>  <SCORE.INTER.POLAR>
-3.52904

>  <SCORE.INTER.ROT>
2

>  <SCORE.INTER.SOLV>
19.4509

>  <SCORE.INTER.VDW>
-16.2077

>  <SCORE.INTER.norm>
-1.91009

>  <SCORE.INTRA>
-0.971435

>  <SCORE.INTRA.DIHEDRAL>
-0.0770946

>  <SCORE.INTRA.DIHEDRAL.0>
3.00737

>  <SCORE.INTRA.POLAR>
0.0775999

>  <SCORE.INTRA.POLAR.0>
-0.0775999

>  <SCORE.INTRA.REPUL>
0

>  <SCORE.INTRA.REPUL.0>
0

>  <SCORE.INTRA.SOLV>
-0.223818

>  <SCORE.INTRA.SOLV.lig_0>
-47.2313

>  <SCORE.INTRA.VDW>
-1.08482

>  <SCORE.INTRA.VDW.0>
0.78977

>  <SCORE.INTRA.norm>
-0.0747257

>  <SCORE.RESTR>
0

>  <SCORE.RESTR.CAVITY>
0

>  <SCORE.RESTR.norm>
0

>  <SCORE.SYSTEM>
-21.0352

>  <SCORE.SYSTEM.CONST>
0

>  <SCORE.SYSTEM.DIHEDRAL>
4.52114

>  <SCORE.SYSTEM.POLAR>
-3.05078

>  <SCORE.SYSTEM.SOLV>
0.156021

>  <SCORE.SYSTEM.VDW>
-5.41327

>  <SCORE.SYSTEM.norm>
-1.61809

>  <SCORE.heavy>
13

>  <SCORE.norm>
-3.60291

$$$$
P108184382
 OpenBabel12072022113D
libRbt.so/2013.1/901 2013/11/27
 15 16  0  0  0  0  0  0  0  0999 V2000
  -24.7507   16.5057  -16.9920 C   0  0  0  0  0  0  0  0  0  0  0  0
  -25.4380   15.2833  -17.1712 C   0  0  0  0  0  0  0  0  0  0  0  0
  -26.4264   15.2410  -16.2098 C   0  0  0  0  0  0  0  0  0  0  0  0
  -26.3786   16.3795  -15.4505 O   0  0  0  0  0  0  0  0  0  0  0  0
  -25.3548   17.1331  -15.9295 C   0  0  0  0  0  0  0  0  0  0  0  0
  -27.4860   14.2282  -15.8827 C   0  0  1  0  0  0  0  0  0  0  0  0
  -28.6218   14.2516  -16.9012 C   0  0  0  0  0  0  0  0  0  0  0  0
  -28.0609   13.4920  -18.0783 N   0  3  0  0  0  0  0  0  0  0  0  0
  -28.7708   12.9858  -18.6143 H   0  0  0  0  0  0  0  0  0  0  0  0
  -27.5914   14.1702  -18.6939 H   0  0  0  0  0  0  0  0  0  0  0  0
  -26.9828   12.5693  -17.5392 C   0  0  0  0  0  0  0  0  0  0  0  0
  -27.0434   12.7822  -16.0480 C   0  0  1  0  0  0  0  0  0  0  0  0
  -25.7518   12.3545  -15.4010 C   0  0  0  0  0  0  0  0  0  0  0  0
  -25.3990   13.0731  -14.4311 O   0  0  0  0  0  0  0  0  0  0  0  0
  -25.2306   11.3231  -15.8979 O   0  5  0  0  0  0  0  0  0  0  0  0
  1  2  1  0  0  0  0
  1  5  2  0  0  0  0
  2  3  2  0  0  0  0
  3  4  1  0  0  0  0
  4  5  1  0  0  0  0
  6  7  1  0  0  0  0
  6 12  1  0  0  0  0
  6  3  1  6  0  0  0
  7  8  1  0  0  0  0
  8  9  1  0  0  0  0
  8 10  1  0  0  0  0
  8 11  1  0  0  0  0
 11 12  1  0  0  0  0
 12 13  1  6  0  0  0
 13 14  2  0  0  0  0
 13 15  1  0  0  0  0
M  CHG  2   8   1  15  -1
M  END
>  <CHROM.0>
-59.94465372,-178.07475970,-71.56471374,-41.55060152,-174.44103943,-176.71087337
-170.80057845,57.43128198,-168.56135330

>  <CHROM.1>
-74.46954633,23.22260475,-26.39210736,14.15609453,-16.30262747,-1.33537075
0.64304033,3.00300797

>  <Name>
P108184382

>  <RI>
0

>  <Rbt.Current_Directory>
/home/fstefaniak/projects/zuza/docking/adenine/4TZX

>  <Rbt.Executable>
rbdock ($Id: //depot/dev/client3/rdock/2013.1/src/exe/rbdock.cxx#4 $)

>  <Rbt.Library>
libRbt.so (2013.1, Build901 2013/11/27)

>  <Rbt.Parameter_File>
/home/fstefaniak/progs/rDock//data/scripts/dock_solv.prm

>  <Rbt.Receptor>
4tzx.prm

>  <SCORE>
-45.3229

>  <SCORE.INTER>
-24.7193

>  <SCORE.INTER.CONST>
1

>  <SCORE.INTER.POLAR>
-3.50575

>  <SCORE.INTER.ROT>
2

>  <SCORE.INTER.SOLV>
19.6227

>  <SCORE.INTER.VDW>
-16.268

>  <SCORE.INTER.norm>
-1.90148

>  <SCORE.INTRA>
-1.16152

>  <SCORE.INTRA.DIHEDRAL>
-0.16491

>  <SCORE.INTRA.DIHEDRAL.0>
3.00737

>  <SCORE.INTRA.POLAR>
0.0775999

>  <SCORE.INTRA.POLAR.0>
-0.0775999

>  <SCORE.INTRA.REPUL>
0

>  <SCORE.INTRA.REPUL.0>
0

>  <SCORE.INTRA.SOLV>
-0.318088

>  <SCORE.INTRA.SOLV.lig_0>
-47.2313

>  <SCORE.INTRA.VDW>
-1.18386

>  <SCORE.INTRA.VDW.0>
0.78977

>  <SCORE.INTRA.norm>
-0.0893478

>  <SCORE.RESTR>
0.00104443

>  <SCORE.RESTR.CAVITY>
0.00104443

>  <SCORE.RESTR.norm>
8.03407e-05

>  <SCORE.SYSTEM>
-19.4432

>  <SCORE.SYSTEM.CONST>
0

>  <SCORE.SYSTEM.DIHEDRAL>
5.41715

>  <SCORE.SYSTEM.POLAR>
-3.05337

>  <SCORE.SYSTEM.SOLV>
-0.340161

>  <SCORE.SYSTEM.VDW>
-4.47654

>  <SCORE.SYSTEM.norm>
-1.49563

>  <SCORE.heavy>
13

>  <SCORE.norm>
-3.48638

$$$$
P108184382
 OpenBabel12072022113D
libRbt.so/2013.1/901 2013/11/27
 15 16  0  0  0  0  0  0  0  0999 V2000
  -24.7601   16.4973  -16.9919 C   0  0  0  0  0  0  0  0  0  0  0  0
  -25.4281   15.2636  -17.1666 C   0  0  0  0  0  0  0  0  0  0  0  0
  -26.4180   15.2108  -16.2073 C   0  0  0  0  0  0  0  0  0  0  0  0
  -26.3894   16.3536  -15.4535 O   0  0  0  0  0  0  0  0  0  0  0  0
  -25.3762   17.1204  -15.9338 C   0  0  0  0  0  0  0  0  0  0  0  0
  -27.4627   14.1835  -15.8776 C   0  0  1  0  0  0  0  0  0  0  0  0
  -28.6097   14.2030  -16.8836 C   0  0  0  0  0  0  0  0  0  0  0  0
  -28.0533   13.4598  -18.0732 N   0  3  0  0  0  0  0  0  0  0  0  0
  -28.7633   12.9504  -18.6059 H   0  0  0  0  0  0  0  0  0  0  0  0
  -27.5981   14.1485  -18.6879 H   0  0  0  0  0  0  0  0  0  0  0  0
  -26.9592   12.5446  -17.5539 C   0  0  0  0  0  0  0  0  0  0  0  0
  -27.0059   12.7440  -16.0603 C   0  0  1  0  0  0  0  0  0  0  0  0
  -25.7026   12.3252  -15.4311 C   0  0  0  0  0  0  0  0  0  0  0  0
  -25.1757   11.3145  -15.9625 O   0  0  0  0  0  0  0  0  0  0  0  0
  -25.3108   13.0636  -14.4911 O   0  5  0  0  0  0  0  0  0  0  0  0
  1  2  1  0  0  0  0
  1  5  2  0  0  0  0
  2  3  2  0  0  0  0
  3  4  1  0  0  0  0
  4  5  1  0  0  0  0
  6  7  1  0  0  0  0
  6 12  1  0  0  0  0
  6  3  1  6  0  0  0
  7  8  1  0  0  0  0
  8  9  1  0  0  0  0
  8 10  1  0  0  0  0
  8 11  1  0  0  0  0
 11 12  1  0  0  0  0
 12 13  1  6  0  0  0
 13 14  2  0  0  0  0
 13 15  1  0  0  0  0
M  CHG  2   8   1  15  -1
M  END
>  <CHROM.0>
-60.43809595,-177.54468388,-66.54291976,-42.78404763,59.31387119,-61.02883765
-67.79850710,57.70781325,-168.76966716

>  <CHROM.1>
-75.58082981,-157.63406476,-26.37037827,14.13089007,-16.31550203,-1.35204647
0.62277090,3.02845561

>  <Name>
P108184382

>  <RI>
0

>  <Rbt.Current_Directory>
/home/fstefaniak/projects/zuza/docking/adenine/4TZX

>  <Rbt.Executable>
rbdock ($Id: //depot/dev/client3/rdock/2013.1/src/exe/rbdock.cxx#4 $)

>  <Rbt.Library>
libRbt.so (2013.1, Build901 2013/11/27)

>  <Rbt.Parameter_File>
/home/fstefaniak/progs/rDock//data/scripts/dock_solv.prm

>  <Rbt.Receptor>
4tzx.prm

>  <SCORE>
-45.1325

>  <SCORE.INTER>
-24.8287

>  <SCORE.INTER.CONST>
1

>  <SCORE.INTER.POLAR>
-3.52814

>  <SCORE.INTER.ROT>
2

>  <SCORE.INTER.SOLV>
19.3245

>  <SCORE.INTER.VDW>
-16.1668

>  <SCORE.INTER.norm>
-1.9099

>  <SCORE.INTRA>
-0.98828

>  <SCORE.INTRA.DIHEDRAL>
-0.110749

>  <SCORE.INTRA.DIHEDRAL.0>
3.00737

>  <SCORE.INTRA.POLAR>
0.0775999

>  <SCORE.INTRA.POLAR.0>
-0.0775999

>  <SCORE.INTRA.REPUL>
0

>  <SCORE.INTRA.REPUL.0>
0

>  <SCORE.INTRA.SOLV>
-0.23227

>  <SCORE.INTRA.SOLV.lig_0>
-47.2313

>  <SCORE.INTRA.VDW>
-1.08061

>  <SCORE.INTRA.VDW.0>
0.78977

>  <SCORE.INTRA.norm>
-0.0760215

>  <SCORE.RESTR>
0

>  <SCORE.RESTR.CAVITY>
0

>  <SCORE.RESTR.norm>
0

>  <SCORE.SYSTEM>
-19.3156

>  <SCORE.SYSTEM.CONST>
0

>  <SCORE.SYSTEM.DIHEDRAL>
4.53558

>  <SCORE.SYSTEM.POLAR>
-3.04997

>  <SCORE.SYSTEM.SOLV>
-0.233612

>  <SCORE.SYSTEM.VDW>
-4.14447

>  <SCORE.SYSTEM.norm>
-1.48581

>  <SCORE.heavy>
13

>  <SCORE.norm>
-3.47173

$$$$
P108871030
 OpenBabel12072022113D
libRbt.so/2013.1/901 2013/11/27
 12 12  0  0  0  0  0  0  0  0999 V2000
  -29.2488   15.6275  -16.2104 C   0  0  0  0  0  0  0  0  0  0  0  0
  -27.8679   15.3291  -16.5029 N   0  0  0  0  0  0  0  0  0  0  0  0
  -26.8081   16.2469  -16.1766 C   0  0  0  0  0  0  0  0  0  0  0  0
  -25.5840   15.5761  -16.7703 C   0  0  0  0  0  0  0  0  0  0  0  0
  -25.8508   14.0803  -16.5607 C   0  0  2  0  0  0  0  0  0  0  0  0
  -27.3862   14.0286  -16.6355 C   0  0  0  0  0  0  0  0  0  0  0  0
  -28.0595   13.0145  -16.7473 O   0  0  0  0  0  0  0  0  0  0  0  0
  -25.3481   13.6589  -15.2385 N   0  0  0  0  0  0  0  0  0  0  0  0
  -25.4295   12.2070  -15.0662 C   0  0  0  0  0  0  0  0  0  0  0  0
  -24.6549   11.8191  -13.8774 C   0  0  0  0  0  0  0  0  0  0  0  0
  -24.0187   11.5066  -12.9075 C   0  0  0  0  0  0  0  0  0  0  0  0
  -24.3678   13.9267  -15.1617 H   0  0  0  0  0  0  0  0  0  0  0  0
  1  2  1  0  0  0  0
  2  3  1  0  0  0  0
  2  6  1  0  0  0  0
  3  4  1  0  0  0  0
  4  5  1  0  0  0  0
  5  6  1  0  0  0  0
  5  8  1  1  0  0  0
  6  7  2  0  0  0  0
  8  9  1  0  0  0  0
  8 12  1  0  0  0  0
  9 10  1  0  0  0  0
 10 11  3  0  0  0  0
M  END
>  <CHROM.0>
-60.01325289,-62.08945252,-66.21626665,-43.67464776,-58.86487331,-60.41407889
-66.86711404,-59.31316551,-168.77991785

>  <CHROM.1>
-172.80330225,167.63719639,-31.08614216,-26.44310391,13.95843887,-15.73727804
2.27890280,-0.33002176,-0.38810013

>  <Name>
P108871030

>  <RI>
0

>  <Rbt.Current_Directory>
/home/fstefaniak/projects/zuza/docking/adenine/4TZX

>  <Rbt.Executable>
rbdock ($Id: //depot/dev/client3/rdock/2013.1/src/exe/rbdock.cxx#4 $)

>  <Rbt.Library>
libRbt.so (2013.1, Build901 2013/11/27)

>  <Rbt.Parameter_File>
/home/fstefaniak/progs/rDock//data/scripts/dock_solv.prm

>  <Rbt.Receptor>
4tzx.prm

>  <SCORE>
-40.259

>  <SCORE.INTER>
-19.0516

>  <SCORE.INTER.CONST>
1

>  <SCORE.INTER.POLAR>
-1.83093

>  <SCORE.INTER.ROT>
3

>  <SCORE.INTER.SOLV>
7.82273

>  <SCORE.INTER.VDW>
-14.8056

>  <SCORE.INTER.norm>
-1.73197

>  <SCORE.INTRA>
-0.0188763

>  <SCORE.INTRA.DIHEDRAL>
0.153052

>  <SCORE.INTRA.DIHEDRAL.0>
0.211263

>  <SCORE.INTRA.POLAR>
0

>  <SCORE.INTRA.POLAR.0>
0

>  <SCORE.INTRA.REPUL>
0

>  <SCORE.INTRA.REPUL.0>
0

>  <SCORE.INTRA.SOLV>
-0.0430359

>  <SCORE.INTRA.SOLV.lig_0>
-11.7728

>  <SCORE.INTRA.VDW>
-0.0738846

>  <SCORE.INTRA.VDW.0>
-0.380834

>  <SCORE.INTRA.norm>
-0.00171603

>  <SCORE.RESTR>
0

>  <SCORE.RESTR.CAVITY>
0

>  <SCORE.RESTR.norm>
0

>  <SCORE.SYSTEM>
-21.1885

>  <SCORE.SYSTEM.CONST>
0

>  <SCORE.SYSTEM.DIHEDRAL>
4.2985

>  <SCORE.SYSTEM.POLAR>
-3.039

>  <SCORE.SYSTEM.SOLV>
0.186014

>  <SCORE.SYSTEM.VDW>
-5.49048

>  <SCORE.SYSTEM.norm>
-1.92623

>  <SCORE.heavy>
11

>  <SCORE.norm>
-3.65991

$$$$
P108871030
 OpenBabel12072022113D
libRbt.so/2013.1/901 2013/11/27
 12 12  0  0  0  0  0  0  0  0999 V2000
  -31.5213   18.0926  -13.8721 C   0  0  0  0  0  0  0  0  0  0  0  0
  -31.1469   17.7412  -15.2203 N   0  0  0  0  0  0  0  0  0  0  0  0
  -30.8894   18.7429  -16.2215 C   0  0  0  0  0  0  0  0  0  0  0  0
  -30.6628   17.9192  -17.4748 C   0  0  0  0  0  0  0  0  0  0  0  0
  -29.9463   16.6641  -16.9610 C   0  0  2  0  0  0  0  0  0  0  0  0
  -30.5322   16.5338  -15.5449 C   0  0  0  0  0  0  0  0  0  0  0  0
  -30.4328   15.5538  -14.8210 O   0  0  0  0  0  0  0  0  0  0  0  0
  -28.4880   16.8905  -16.9363 N   0  0  0  0  0  0  0  0  0  0  0  0
  -27.7859   15.8192  -16.2266 C   0  0  0  0  0  0  0  0  0  0  0  0
  -26.3403   16.0892  -16.2555 C   0  0  0  0  0  0  0  0  0  0  0  0
  -25.1607   16.3153  -16.2777 C   0  0  0  0  0  0  0  0  0  0  0  0
  -28.1440   16.9056  -17.8955 H   0  0  0  0  0  0  0  0  0  0  0  0
  1  2  1  0  0  0  0
  2  3  1  0  0  0  0
  2  6  1  0  0  0  0
  3  4  1  0  0  0  0
  4  5  1  0  0  0  0
  5  6  1  0  0  0  0
  5  8  1  1  0  0  0
  6  7  2  0  0  0  0
  8  9  1  0  0  0  0
  8 12  1  0  0  0  0
  9 10  1  0  0  0  0
 10 11  3  0  0  0  0
M  END
>  <CHROM.0>
-57.63507531,-62.56150749,-67.72938614,-43.38469407,-54.98483098,-66.70101158
-64.43164897,-63.10011926,-168.80606685

>  <CHROM.1>
169.51735969,179.06622698,45.99637476,-29.42352765,16.95394434,-15.96024305
-3.11040867,0.38170227,-1.03953185

>  <Name>
P108871030

>  <RI>
0

>  <Rbt.Current_Directory>
/home/fstefaniak/projects/zuza/docking/adenine/4TZX

>  <Rbt.Executable>
rbdock ($Id: //depot/dev/client3/rdock/2013.1/src/exe/rbdock.cxx#4 $)

>  <Rbt.Library>
libRbt.so (2013.1, Build901 2013/11/27)

>  <Rbt.Parameter_File>
/home/fstefaniak/progs/rDock//data/scripts/dock_solv.prm

>  <Rbt.Receptor>
4tzx.prm

>  <SCORE>
-39.713

>  <SCORE.INTER>
-18.8566

>  <SCORE.INTER.CONST>
1

>  <SCORE.INTER.POLAR>
-1.68114

>  <SCORE.INTER.ROT>
3

>  <SCORE.INTER.SOLV>
11.5626

>  <SCORE.INTER.VDW>
-16.4215

>  <SCORE.INTER.norm>
-1.71424

>  <SCORE.INTRA>
0.274013

>  <SCORE.INTRA.DIHEDRAL>
0.0440805

>  <SCORE.INTRA.DIHEDRAL.0>
0.211263

>  <SCORE.INTRA.POLAR>
0

>  <SCORE.INTRA.POLAR.0>
0

>  <SCORE.INTRA.REPUL>
0

>  <SCORE.INTRA.REPUL.0>
0

>  <SCORE.INTRA.SOLV>
0.0580989

>  <SCORE.INTRA.SOLV.lig_0>
-11.7728

>  <SCORE.INTRA.VDW>
0.222924

>  <SCORE.INTRA.VDW.0>
-0.380834

>  <SCORE.INTRA.norm>
0.0249103

>  <SCORE.RESTR>
0

>  <SCORE.RESTR.CAVITY>
0

>  <SCORE.RESTR.norm>
0

>  <SCORE.SYSTEM>
-21.1303

>  <SCORE.SYSTEM.CONST>
0

>  <SCORE.SYSTEM.DIHEDRAL>
4.69427

>  <SCORE.SYSTEM.POLAR>
-3.0668

>  <SCORE.SYSTEM.SOLV>
0.179364

>  <SCORE.SYSTEM.VDW>
-5.48878

>  <SCORE.SYSTEM.norm>
-1.92094

>  <SCORE.heavy>
11

>  <SCORE.norm>
-3.61027

$$$$
P108871030
 OpenBabel12072022113D
libRbt.so/2013.1/901 2013/11/27
 12 12  0  0  0  0  0  0  0  0999 V2000
  -31.5354   18.0712  -13.8926 C   0  0  0  0  0  0  0  0  0  0  0  0
  -31.1479   17.7239  -15.2382 N   0  0  0  0  0  0  0  0  0  0  0  0
  -30.8884   18.7285  -16.2359 C   0  0  0  0  0  0  0  0  0  0  0  0
  -30.6468   17.9078  -17.4884 C   0  0  0  0  0  0  0  0  0  0  0  0
  -29.9269   16.6563  -16.9705 C   0  0  2  0  0  0  0  0  0  0  0  0
  -30.5235   16.5206  -15.5594 C   0  0  0  0  0  0  0  0  0  0  0  0
  -30.4240   15.5403  -14.8359 O   0  0  0  0  0  0  0  0  0  0  0  0
  -28.4703   16.8914  -16.9337 N   0  0  0  0  0  0  0  0  0  0  0  0
  -27.7688   15.8294  -16.2096 C   0  0  0  0  0  0  0  0  0  0  0  0
  -26.3197   16.0692  -16.2880 C   0  0  0  0  0  0  0  0  0  0  0  0
  -25.1370   16.2680  -16.3569 C   0  0  0  0  0  0  0  0  0  0  0  0
  -28.1173   16.9015  -17.8897 H   0  0  0  0  0  0  0  0  0  0  0  0
  1  2  1  0  0  0  0
  2  3  1  0  0  0  0
  2  6  1  0  0  0  0
  3  4  1  0  0  0  0
  4  5  1  0  0  0  0
  5  6  1  0  0  0  0
  5  8  1  1  0  0  0
  6  7  2  0  0  0  0
  8  9  1  0  0  0  0
  8 12  1  0  0  0  0
  9 10  1  0  0  0  0
 10 11  3  0  0  0  0
M  END
>  <CHROM.0>
-59.43403688,-61.11260379,-63.74271850,-42.96083654,-57.20983603,-61.87385187
-67.97430426,-59.31061091,-169.44693310

>  <CHROM.1>
169.01552140,176.08257196,-25.35635461,-29.41313371,16.94011967,-15.97749418
-3.11268250,0.38358291,-1.02233996

>  <Name>
P108871030

>  <RI>
0

>  <Rbt.Current_Directory>
/home/fstefaniak/projects/zuza/docking/adenine/4TZX

>  <Rbt.Executable>
rbdock ($Id: //depot/dev/client3/rdock/2013.1/src/exe/rbdock.cxx#4 $)

>  <Rbt.Library>
libRbt.so (2013.1, Build901 2013/11/27)

>  <Rbt.Parameter_File>
/home/fstefaniak/progs/rDock//data/scripts/dock_solv.prm

>  <Rbt.Receptor>
4tzx.prm

>  <SCORE>
-39.6227

>  <SCORE.INTER>
-18.8177

>  <SCORE.INTER.CONST>
1

>  <SCORE.INTER.POLAR>
-1.66977

>  <SCORE.INTER.ROT>
3

>  <SCORE.INTER.SOLV>
11.5689

>  <SCORE.INTER.VDW>
-16.4355

>  <SCORE.INTER.norm>
-1.7107

>  <SCORE.INTRA>
0.33154

>  <SCORE.INTRA.DIHEDRAL>
0.0809592

>  <SCORE.INTRA.DIHEDRAL.0>
0.211263

>  <SCORE.INTRA.POLAR>
0

>  <SCORE.INTRA.POLAR.0>
0

>  <SCORE.INTRA.REPUL>
0

>  <SCORE.INTRA.REPUL.0>
0

>  <SCORE.INTRA.SOLV>
0.0584992

>  <SCORE.INTRA.SOLV.lig_0>
-11.7728

>  <SCORE.INTRA.VDW>
0.26181

>  <SCORE.INTRA.VDW.0>
-0.380834

>  <SCORE.INTRA.norm>
0.03014

>  <SCORE.RESTR>
0

>  <SCORE.RESTR.CAVITY>
0

>  <SCORE.RESTR.norm>
0

>  <SCORE.SYSTEM>
-21.1365

>  <SCORE.SYSTEM.CONST>
0

>  <SCORE.SYSTEM.DIHEDRAL>
4.32964

>  <SCORE.SYSTEM.POLAR>
-3.04884

>  <SCORE.SYSTEM.SOLV>
0.18935

>  <SCORE.SYSTEM.VDW>
-5.43455

>  <SCORE.SYSTEM.norm>
-1.9215

>  <SCORE.heavy>
11

>  <SCORE.norm>
-3.60207

$$$$
P108902482
 OpenBabel12072022113D
libRbt.so/2013.1/901 2013/11/27
 14 13  0  0  0  0  0  0  0  0999 V2000
  -31.0970   18.7120  -17.0944 C   0  0  0  0  0  0  0  0  0  0  0  0
  -29.9204   17.7489  -17.1621 C   0  0  0  0  0  0  0  0  0  0  0  0
  -29.9727   16.6460  -16.1046 C   0  0  2  0  0  0  0  0  0  0  0  0
  -29.5462   17.2071  -14.7313 C   0  0  0  0  0  0  0  0  0  0  0  0
  -28.2623   17.2724  -14.5143 N   0  0  0  0  0  0  0  0  0  0  0  0
  -28.0191   17.8014  -13.2361 O   0  0  0  0  0  0  0  0  0  0  0  0
  -30.4995   17.5763  -13.8197 N   0  0  0  0  0  0  0  0  0  0  0  0
  -29.0359   15.5377  -16.4690 N   0  3  0  0  0  0  0  0  0  0  0  0
  -28.8868   15.5302  -17.4860 H   0  0  0  0  0  0  0  0  0  0  0  0
  -28.1279   15.5728  -15.9974 H   0  0  0  0  0  0  0  0  0  0  0  0
  -29.5047   14.6428  -16.2593 H   0  0  0  0  0  0  0  0  0  0  0  0
  -28.3550   18.7179  -13.2965 H   0  0  0  0  0  0  0  0  0  0  0  0
  -31.4648   17.2932  -13.9563 H   0  0  0  0  0  0  0  0  0  0  0  0
  -30.4166   18.5595  -13.5546 H   0  0  0  0  0  0  0  0  0  0  0  0
  1  2  1  0  0  0  0
  3  4  1  0  0  0  0
  3  8  1  0  0  0  0
  3  2  1  6  0  0  0
  4  5  2  0  0  0  0
  4  7  1  0  0  0  0
  5  6  1  0  0  0  0
  6 12  1  0  0  0  0
  7 13  1  0  0  0  0
  7 14  1  0  0  0  0
  8  9  1  0  0  0  0
  8 10  1  0  0  0  0
  8 11  1  0  0  0  0
M  CHG  1   8   1
M  END
>  <CHROM.0>
-56.28929354,-61.98453336,-68.65469658,-43.56126972,-175.03154454,-59.85969354
-66.80826755,-57.98683742,-167.85533835

>  <CHROM.1>
-82.82434337,-25.13095103,-77.03562186,13.66992210,-65.24392185,-29.52402084
17.31021430,-15.36004851,2.27786622,0.78426131,-2.11213900

>  <Name>
P108902482

>  <RI>
0

>  <Rbt.Current_Directory>
/home/fstefaniak/projects/zuza/docking/adenine/4TZX

>  <Rbt.Executable>
rbdock ($Id: //depot/dev/client3/rdock/2013.1/src/exe/rbdock.cxx#4 $)

>  <Rbt.Library>
libRbt.so (2013.1, Build901 2013/11/27)

>  <Rbt.Parameter_File>
/home/fstefaniak/progs/rDock//data/scripts/dock_solv.prm

>  <Rbt.Receptor>
4tzx.prm

>  <SCORE>
-53.8492

>  <SCORE.INTER>
-33.3012

>  <SCORE.INTER.CONST>
1

>  <SCORE.INTER.POLAR>
-5.33132

>  <SCORE.INTER.ROT>
3

>  <SCORE.INTER.SOLV>
14.9853

>  <SCORE.INTER.VDW>
-15.0248

>  <SCORE.INTER.norm>
-4.16265

>  <SCORE.INTRA>
0.654856

>  <SCORE.INTRA.DIHEDRAL>
1.65754

>  <SCORE.INTRA.DIHEDRAL.0>
3.70319

>  <SCORE.INTRA.POLAR>
-0.028201

>  <SCORE.INTRA.POLAR.0>
-0.0875306

>  <SCORE.INTRA.REPUL>
0

>  <SCORE.INTRA.REPUL.0>
0

>  <SCORE.INTRA.SOLV>
-0.955197

>  <SCORE.INTRA.SOLV.lig_0>
-28.1699

>  <SCORE.INTRA.VDW>
0.399569

>  <SCORE.INTRA.VDW.0>
-0.658493

>  <SCORE.INTRA.norm>
0.081857

>  <SCORE.RESTR>
0

>  <SCORE.RESTR.CAVITY>
0

>  <SCORE.RESTR.norm>
0

>  <SCORE.SYSTEM>
-21.2029

>  <SCORE.SYSTEM.CONST>
0

>  <SCORE.SYSTEM.DIHEDRAL>
4.74563

>  <SCORE.SYSTEM.POLAR>
-3.06478

>  <SCORE.SYSTEM.SOLV>
0.00584765

>  <SCORE.SYSTEM.VDW>
-5.50316

>  <SCORE.SYSTEM.norm>
-2.65036

>  <SCORE.heavy>
8

>  <SCORE.norm>
-6.73115

$$$$
P108902482
 OpenBabel12072022113D
libRbt.so/2013.1/901 2013/11/27
 14 13  0  0  0  0  0  0  0  0999 V2000
  -28.3846   14.6895  -16.2705 C   0  0  0  0  0  0  0  0  0  0  0  0
  -29.6810   15.4056  -15.9197 C   0  0  0  0  0  0  0  0  0  0  0  0
  -29.5761   16.9291  -15.9941 C   0  0  2  0  0  0  0  0  0  0  0  0
  -30.7279   17.5796  -15.1986 C   0  0  0  0  0  0  0  0  0  0  0  0
  -30.6164   17.5454  -13.9001 N   0  0  0  0  0  0  0  0  0  0  0  0
  -31.7251   18.1721  -13.3077 O   0  0  0  0  0  0  0  0  0  0  0  0
  -31.7940   18.1240  -15.8644 N   0  0  0  0  0  0  0  0  0  0  0  0
  -29.6742   17.3836  -17.4162 N   0  3  0  0  0  0  0  0  0  0  0  0
  -28.8831   17.0091  -17.9552 H   0  0  0  0  0  0  0  0  0  0  0  0
  -30.5485   17.1327  -17.8861 H   0  0  0  0  0  0  0  0  0  0  0  0
  -29.5498   18.4078  -17.4324 H   0  0  0  0  0  0  0  0  0  0  0  0
  -31.8291   17.7031  -12.4560 H   0  0  0  0  0  0  0  0  0  0  0  0
  -32.6462   17.5844  -15.9792 H   0  0  0  0  0  0  0  0  0  0  0  0
  -31.5097   18.5899  -16.7281 H   0  0  0  0  0  0  0  0  0  0  0  0
  1  2  1  0  0  0  0
  3  4  1  0  0  0  0
  3  8  1  0  0  0  0
  3  2  1  6  0  0  0
  4  5  2  0  0  0  0
  4  7  1  0  0  0  0
  5  6  1  0  0  0  0
  6 12  1  0  0  0  0
  7 13  1  0  0  0  0
  7 14  1  0  0  0  0
  8  9  1  0  0  0  0
  8 10  1  0  0  0  0
  8 11  1  0  0  0  0
M  CHG  1   8   1
M  END
>  <CHROM.0>
-61.61007171,51.25978767,-60.93061431,-42.62198194,-61.01848690,-64.44947472
-65.05433801,-63.54058459,-168.87701581

>  <CHROM.1>
74.93209713,-63.02861225,-161.27661124,97.37823571,149.90161402,-30.30694184
17.00768106,-15.50188313,-0.38041079,-0.88520598,1.88711154

>  <Name>
P108902482

>  <RI>
0

>  <Rbt.Current_Directory>
/home/fstefaniak/projects/zuza/docking/adenine/4TZX

>  <Rbt.Executable>
rbdock ($Id: //depot/dev/client3/rdock/2013.1/src/exe/rbdock.cxx#4 $)

>  <Rbt.Library>
libRbt.so (2013.1, Build901 2013/11/27)

>  <Rbt.Parameter_File>
/home/fstefaniak/progs/rDock//data/scripts/dock_solv.prm

>  <Rbt.Receptor>
4tzx.prm

>  <SCORE>
-52.9067

>  <SCORE.INTER>
-33.6104

>  <SCORE.INTER.CONST>
1

>  <SCORE.INTER.POLAR>
-4.9734

>  <SCORE.INTER.ROT>
3

>  <SCORE.INTER.SOLV>
16.1741

>  <SCORE.INTER.VDW>
-16.8203

>  <SCORE.INTER.norm>
-4.2013

>  <SCORE.INTRA>
0.975192

>  <SCORE.INTRA.DIHEDRAL>
0.465989

>  <SCORE.INTRA.DIHEDRAL.0>
3.70319

>  <SCORE.INTRA.POLAR>
0.0875306

>  <SCORE.INTRA.POLAR.0>
-0.0875306

>  <SCORE.INTRA.REPUL>
0

>  <SCORE.INTRA.REPUL.0>
0

>  <SCORE.INTRA.SOLV>
1.00164

>  <SCORE.INTRA.SOLV.lig_0>
-28.1699

>  <SCORE.INTRA.VDW>
-0.0562239

>  <SCORE.INTRA.VDW.0>
-0.658493

>  <SCORE.INTRA.norm>
0.121899

>  <SCORE.RESTR>
0

>  <SCORE.RESTR.CAVITY>
0

>  <SCORE.RESTR.norm>
0

>  <SCORE.SYSTEM>
-20.2716

>  <SCORE.SYSTEM.CONST>
0

>  <SCORE.SYSTEM.DIHEDRAL>
4.66641

>  <SCORE.SYSTEM.POLAR>
-3.08303

>  <SCORE.SYSTEM.SOLV>
0.273697

>  <SCORE.SYSTEM.VDW>
-4.88432

>  <SCORE.SYSTEM.norm>
-2.53395

>  <SCORE.heavy>
8

>  <SCORE.norm>
-6.61334

$$$$
P108902482
 OpenBabel12072022113D
libRbt.so/2013.1/901 2013/11/27
 14 13  0  0  0  0  0  0  0  0999 V2000
  -30.9606   18.4955  -16.8754 C   0  0  0  0  0  0  0  0  0  0  0  0
  -29.8789   17.4275  -16.9513 C   0  0  0  0  0  0  0  0  0  0  0  0
  -29.8804   16.4715  -15.7582 C   0  0  2  0  0  0  0  0  0  0  0  0
  -29.5544   17.2416  -14.4608 C   0  0  0  0  0  0  0  0  0  0  0  0
  -28.2896   17.4476  -14.2209 N   0  0  0  0  0  0  0  0  0  0  0  0
  -28.1399   18.1576  -13.0182 O   0  0  0  0  0  0  0  0  0  0  0  0
  -30.5689   17.6405  -13.6315 N   0  0  0  0  0  0  0  0  0  0  0  0
  -28.8420   15.4107  -15.9464 N   0  3  0  0  0  0  0  0  0  0  0  0
  -29.0433   14.8764  -16.8012 H   0  0  0  0  0  0  0  0  0  0  0  0
  -27.8794   15.7568  -15.9863 H   0  0  0  0  0  0  0  0  0  0  0  0
  -28.9378   14.7312  -15.1758 H   0  0  0  0  0  0  0  0  0  0  0  0
  -28.2629   17.4749  -12.3289 H   0  0  0  0  0  0  0  0  0  0  0  0
  -31.5210   17.3425  -13.8194 H   0  0  0  0  0  0  0  0  0  0  0  0
  -30.5106   18.6350  -13.4047 H   0  0  0  0  0  0  0  0  0  0  0  0
  1  2  1  0  0  0  0
  3  4  1  0  0  0  0
  3  8  1  0  0  0  0
  3  2  1  6  0  0  0
  4  5  2  0  0  0  0
  4  7  1  0  0  0  0
  5  6  1  0  0  0  0
  6 12  1  0  0  0  0
  7 13  1  0  0  0  0
  7 14  1  0  0  0  0
  8  9  1  0  0  0  0
  8 10  1  0  0  0  0
  8 11  1  0  0  0  0
M  CHG  1   8   1
M  END
>  <CHROM.0>
-57.31376987,-169.55361460,-65.42651472,-43.42962279,59.24719967,-62.85087287
-64.85589759,-174.09473814,-168.15492336

>  <CHROM.1>
-82.72801490,-60.15525542,-63.87724532,6.62059968,78.40950037,-29.49213422
17.27755306,-15.06705601,2.17621059,0.77836102,-2.17385059

>  <Name>
P108902482

>  <RI>
0

>  <Rbt.Current_Directory>
/home/fstefaniak/projects/zuza/docking/adenine/4TZX

>  <Rbt.Executable>
rbdock ($Id: //depot/dev/client3/rdock/2013.1/src/exe/rbdock.cxx#4 $)

>  <Rbt.Library>
libRbt.so (2013.1, Build901 2013/11/27)

>  <Rbt.Parameter_File>
/home/fstefaniak/progs/rDock//data/scripts/dock_solv.prm

>  <Rbt.Receptor>
4tzx.prm

>  <SCORE>
-52.7474

>  <SCORE.INTER>
-31.5087

>  <SCORE.INTER.CONST>
1

>  <SCORE.INTER.POLAR>
-4.93723

>  <SCORE.INTER.ROT>
3

>  <SCORE.INTER.SOLV>
15.0173

>  <SCORE.INTER.VDW>
-15.1541

>  <SCORE.INTER.norm>
-3.93859

>  <SCORE.INTRA>
-1.21134

>  <SCORE.INTRA.DIHEDRAL>
-1.9956

>  <SCORE.INTRA.DIHEDRAL.0>
3.70319

>  <SCORE.INTRA.POLAR>
0.0875306

>  <SCORE.INTRA.POLAR.0>
-0.0875306

>  <SCORE.INTRA.REPUL>
0

>  <SCORE.INTRA.REPUL.0>
0

>  <SCORE.INTRA.SOLV>
-1.01966

>  <SCORE.INTRA.SOLV.lig_0>
-28.1699

>  <SCORE.INTRA.VDW>
-0.00131223

>  <SCORE.INTRA.VDW.0>
-0.658493

>  <SCORE.INTRA.norm>
-0.151417

>  <SCORE.RESTR>
0

>  <SCORE.RESTR.CAVITY>
0

>  <SCORE.RESTR.norm>
0

>  <SCORE.SYSTEM>
-20.0273

>  <SCORE.SYSTEM.CONST>
0

>  <SCORE.SYSTEM.DIHEDRAL>
4.96043

>  <SCORE.SYSTEM.POLAR>
-3.06301

>  <SCORE.SYSTEM.SOLV>
-0.19275

>  <SCORE.SYSTEM.VDW>
-4.73073

>  <SCORE.SYSTEM.norm>
-2.50342

>  <SCORE.heavy>
8

>  <SCORE.norm>
-6.59342

$$$$
P108990635
 OpenBabel12072022113D
libRbt.so/2013.1/901 2013/11/27
 13 13  0  0  0  0  0  0  0  0999 V2000
  -30.0176   18.1598  -18.7641 C   0  0  0  0  0  0  0  0  0  0  0  0
  -29.9672   16.8815  -17.9308 C   0  0  0  0  0  0  0  0  0  0  0  0
  -29.8572   17.1819  -16.5029 N   0  0  0  0  0  0  0  0  0  0  0  0
  -30.8760   18.0812  -15.9691 C   0  0  0  0  0  0  0  0  0  0  0  0
  -30.9485   19.3810  -16.7661 C   0  0  0  0  0  0  0  0  0  0  0  0
  -31.0915   19.1352  -18.2707 C   0  0  0  0  0  0  0  0  0  0  0  0
  -32.4421   18.6463  -18.6040 C   0  0  0  0  0  0  0  0  0  0  0  0
  -33.5007   18.2533  -18.8684 N   0  0  0  0  0  0  0  0  0  0  0  0
  -29.2398   16.3363  -15.6020 C   0  0  0  0  0  0  0  0  0  0  0  0
  -28.4042   16.6828  -14.7749 O   0  0  0  0  0  0  0  0  0  0  0  0
  -29.5943   15.0302  -15.6760 N   0  0  0  0  0  0  0  0  0  0  0  0
  -29.2976   14.4487  -14.9070 H   0  0  0  0  0  0  0  0  0  0  0  0
  -30.5751   14.9198  -15.9045 H   0  0  0  0  0  0  0  0  0  0  0  0
  1  2  1  0  0  0  0
  1  6  1  0  0  0  0
  2  3  1  0  0  0  0
  3  4  1  0  0  0  0
  3  9  1  0  0  0  0
  4  5  1  0  0  0  0
  5  6  1  0  0  0  0
  6  7  1  0  0  0  0
  7  8  3  0  0  0  0
  9 10  2  0  0  0  0
  9 11  1  0  0  0  0
 11 12  1  0  0  0  0
 11 13  1  0  0  0  0
M  END
>  <CHROM.0>
-59.48207119,-60.78125500,-67.70737352,-41.77200177,-59.33471308,-175.92760362
-65.59542354,-173.66031926,-169.27897044

>  <CHROM.1>
131.55556918,-167.76678567,-30.49274924,17.55839657,-17.00603568,2.70924738
-0.84317834,0.13254926

>  <Name>
P108990635

>  <RI>
0

>  <Rbt.Current_Directory>
/home/fstefaniak/projects/zuza/docking/adenine/4TZX

>  <Rbt.Executable>
rbdock ($Id: //depot/dev/client3/rdock/2013.1/src/exe/rbdock.cxx#4 $)

>  <Rbt.Library>
libRbt.so (2013.1, Build901 2013/11/27)

>  <Rbt.Parameter_File>
/home/fstefaniak/progs/rDock//data/scripts/dock_solv.prm

>  <Rbt.Receptor>
4tzx.prm

>  <SCORE>
-44.6099

>  <SCORE.INTER>
-22.5655

>  <SCORE.INTER.CONST>
1

>  <SCORE.INTER.POLAR>
-3.16869

>  <SCORE.INTER.ROT>
2

>  <SCORE.INTER.SOLV>
13.5093

>  <SCORE.INTER.VDW>
-13.9178

>  <SCORE.INTER.norm>
-2.0514

>  <SCORE.INTRA>
-1.14737

>  <SCORE.INTRA.DIHEDRAL>
0.000715462

>  <SCORE.INTRA.DIHEDRAL.0>
0.9606

>  <SCORE.INTRA.POLAR>
0

>  <SCORE.INTRA.POLAR.0>
0

>  <SCORE.INTRA.REPUL>
0

>  <SCORE.INTRA.REPUL.0>
0

>  <SCORE.INTRA.SOLV>
-0.0350847

>  <SCORE.INTRA.SOLV.lig_0>
-14.9476

>  <SCORE.INTRA.VDW>
-1.13018

>  <SCORE.INTRA.VDW.0>
0.705009

>  <SCORE.INTRA.norm>
-0.104306

>  <SCORE.RESTR>
0

>  <SCORE.RESTR.CAVITY>
0

>  <SCORE.RESTR.norm>
0

>  <SCORE.SYSTEM>
-20.8971

>  <SCORE.SYSTEM.CONST>
0

>  <SCORE.SYSTEM.DIHEDRAL>
4.77999

>  <SCORE.SYSTEM.POLAR>
-3.05809

>  <SCORE.SYSTEM.SOLV>
-0.0602681

>  <SCORE.SYSTEM.VDW>
-5.31098

>  <SCORE.SYSTEM.norm>
-1.89973

>  <SCORE.heavy>
11

>  <SCORE.norm>
-4.05544

$$$$
P108990635
 OpenBabel12072022113D
libRbt.so/2013.1/901 2013/11/27
 13 13  0  0  0  0  0  0  0  0999 V2000
  -29.9656   17.7208  -18.7269 C   0  0  0  0  0  0  0  0  0  0  0  0
  -30.0017   16.8294  -17.4879 C   0  0  0  0  0  0  0  0  0  0  0  0
  -29.8146   17.6110  -16.2652 N   0  0  0  0  0  0  0  0  0  0  0  0
  -30.7284   18.7366  -16.0923 C   0  0  0  0  0  0  0  0  0  0  0  0
  -30.7111   19.6631  -17.3051 C   0  0  0  0  0  0  0  0  0  0  0  0
  -30.9287   18.9077  -18.6192 C   0  0  0  0  0  0  0  0  0  0  0  0
  -32.3289   18.4654  -18.7530 C   0  0  0  0  0  0  0  0  0  0  0  0
  -33.4274   18.1084  -18.8573 N   0  0  0  0  0  0  0  0  0  0  0  0
  -29.2448   17.0904  -15.1197 C   0  0  0  0  0  0  0  0  0  0  0  0
  -29.5966   16.0520  -14.5716 O   0  0  0  0  0  0  0  0  0  0  0  0
  -28.2357   17.8148  -14.5775 N   0  0  0  0  0  0  0  0  0  0  0  0
  -27.6191   18.2708  -15.2326 H   0  0  0  0  0  0  0  0  0  0  0  0
  -28.5676   18.4319  -13.8458 H   0  0  0  0  0  0  0  0  0  0  0  0
  1  2  1  0  0  0  0
  1  6  1  0  0  0  0
  2  3  1  0  0  0  0
  3  4  1  0  0  0  0
  3  9  1  0  0  0  0
  4  5  1  0  0  0  0
  5  6  1  0  0  0  0
  6  7  1  0  0  0  0
  7  8  3  0  0  0  0
  9 10  2  0  0  0  0
  9 11  1  0  0  0  0
 11 12  1  0  0  0  0
 11 13  1  0  0  0  0
M  END
>  <CHROM.0>
-60.25874776,-64.33896606,-71.98010941,-41.23595542,-60.43277521,-63.05450159
-170.21369793,-59.74986939,-169.43225700

>  <CHROM.1>
-51.66132239,-36.75892039,-30.39901602,17.88787502,-16.87035888,2.64190705
-0.82446665,-0.29322295

>  <Name>
P108990635

>  <RI>
0

>  <Rbt.Current_Directory>
/home/fstefaniak/projects/zuza/docking/adenine/4TZX

>  <Rbt.Executable>
rbdock ($Id: //depot/dev/client3/rdock/2013.1/src/exe/rbdock.cxx#4 $)

>  <Rbt.Library>
libRbt.so (2013.1, Build901 2013/11/27)

>  <Rbt.Parameter_File>
/home/fstefaniak/progs/rDock//data/scripts/dock_solv.prm

>  <Rbt.Receptor>
4tzx.prm

>  <SCORE>
-44.4466

>  <SCORE.INTER>
-22.5984

>  <SCORE.INTER.CONST>
1

>  <SCORE.INTER.POLAR>
-4.1935

>  <SCORE.INTER.ROT>
2

>  <SCORE.INTER.SOLV>
12.9367

>  <SCORE.INTER.VDW>
-10.3329

>  <SCORE.INTER.norm>
-2.0544

>  <SCORE.INTRA>
-1.33127

>  <SCORE.INTRA.DIHEDRAL>
0.0158757

>  <SCORE.INTRA.DIHEDRAL.0>
0.9606

>  <SCORE.INTRA.POLAR>
0

>  <SCORE.INTRA.POLAR.0>
0

>  <SCORE.INTRA.REPUL>
0

>  <SCORE.INTRA.REPUL.0>
0

>  <SCORE.INTRA.SOLV>
-0.0105605

>  <SCORE.INTRA.SOLV.lig_0>
-14.9476

>  <SCORE.INTRA.VDW>
-1.33393

>  <SCORE.INTRA.VDW.0>
0.705009

>  <SCORE.INTRA.norm>
-0.121025

>  <SCORE.RESTR>
0

>  <SCORE.RESTR.CAVITY>
0

>  <SCORE.RESTR.norm>
0

>  <SCORE.SYSTEM>
-20.517

>  <SCORE.SYSTEM.CONST>
0

>  <SCORE.SYSTEM.DIHEDRAL>
5.37188

>  <SCORE.SYSTEM.POLAR>
-3.04297

>  <SCORE.SYSTEM.SOLV>
0.153528

>  <SCORE.SYSTEM.VDW>
-5.37652

>  <SCORE.SYSTEM.norm>
-1.86518

>  <SCORE.heavy>
11

>  <SCORE.norm>
-4.0406

$$$$
P108990635
 OpenBabel12072022113D
libRbt.so/2013.1/901 2013/11/27
 13 13  0  0  0  0  0  0  0  0999 V2000
  -29.9791   17.7522  -18.7557 C   0  0  0  0  0  0  0  0  0  0  0  0
  -29.9868   16.8613  -17.5159 C   0  0  0  0  0  0  0  0  0  0  0  0
  -29.7913   17.6459  -16.2964 N   0  0  0  0  0  0  0  0  0  0  0  0
  -30.7157   18.7607  -16.1109 C   0  0  0  0  0  0  0  0  0  0  0  0
  -30.7269   19.6866  -17.3242 C   0  0  0  0  0  0  0  0  0  0  0  0
  -30.9545   18.9278  -18.6347 C   0  0  0  0  0  0  0  0  0  0  0  0
  -32.3512   18.4689  -18.7480 C   0  0  0  0  0  0  0  0  0  0  0  0
  -33.4468   18.0989  -18.8362 N   0  0  0  0  0  0  0  0  0  0  0  0
  -29.1989   17.1328  -15.1590 C   0  0  0  0  0  0  0  0  0  0  0  0
  -29.6588   16.2226  -14.4790 O   0  0  0  0  0  0  0  0  0  0  0  0
  -28.0322   17.7126  -14.7850 N   0  0  0  0  0  0  0  0  0  0  0  0
  -27.6062   18.3239  -15.4648 H   0  0  0  0  0  0  0  0  0  0  0  0
  -28.0971   18.1254  -13.8622 H   0  0  0  0  0  0  0  0  0  0  0  0
  1  2  1  0  0  0  0
  1  6  1  0  0  0  0
  2  3  1  0  0  0  0
  3  4  1  0  0  0  0
  3  9  1  0  0  0  0
  4  5  1  0  0  0  0
  5  6  1  0  0  0  0
  6  7  1  0  0  0  0
  7  8  3  0  0  0  0
  9 10  2  0  0  0  0
  9 11  1  0  0  0  0
 11 12  1  0  0  0  0
 11 13  1  0  0  0  0
M  END
>  <CHROM.0>
-60.85508282,56.78687746,-65.74032748,-42.98734708,-57.76696583,-63.54087771
-65.44483587,-56.63338899,-168.77219022

>  <CHROM.1>
-64.40402642,-12.37318856,-30.38389705,17.91245416,-16.89486669,-2.43493975
0.63177739,2.52056323

>  <Name>
P108990635

>  <RI>
0

>  <Rbt.Current_Directory>
/home/fstefaniak/projects/zuza/docking/adenine/4TZX

>  <Rbt.Executable>
rbdock ($Id: //depot/dev/client3/rdock/2013.1/src/exe/rbdock.cxx#4 $)

>  <Rbt.Library>
libRbt.so (2013.1, Build901 2013/11/27)

>  <Rbt.Parameter_File>
/home/fstefaniak/progs/rDock//data/scripts/dock_solv.prm

>  <Rbt.Receptor>
4tzx.prm

>  <SCORE>
-44.3046

>  <SCORE.INTER>
-22.5217

>  <SCORE.INTER.CONST>
1

>  <SCORE.INTER.POLAR>
-3.73309

>  <SCORE.INTER.ROT>
2

>  <SCORE.INTER.SOLV>
12.9205

>  <SCORE.INTER.VDW>
-11.811

>  <SCORE.INTER.norm>
-2.04743

>  <SCORE.INTRA>
-1.43617

>  <SCORE.INTRA.DIHEDRAL>
0.00684474

>  <SCORE.INTRA.DIHEDRAL.0>
0.9606

>  <SCORE.INTRA.POLAR>
0

>  <SCORE.INTRA.POLAR.0>
0

>  <SCORE.INTRA.REPUL>
0

>  <SCORE.INTRA.REPUL.0>
0

>  <SCORE.INTRA.SOLV>
-0.0264956

>  <SCORE.INTRA.SOLV.lig_0>
-14.9476

>  <SCORE.INTRA.VDW>
-1.42635

>  <SCORE.INTRA.VDW.0>
0.705009

>  <SCORE.INTRA.norm>
-0.130561

>  <SCORE.RESTR>
0

>  <SCORE.RESTR.CAVITY>
0

>  <SCORE.RESTR.norm>
0

>  <SCORE.SYSTEM>
-20.3468

>  <SCORE.SYSTEM.CONST>
0

>  <SCORE.SYSTEM.DIHEDRAL>
4.44597

>  <SCORE.SYSTEM.POLAR>
-3.05961

>  <SCORE.SYSTEM.SOLV>
0.264434

>  <SCORE.SYSTEM.VDW>
-4.93593

>  <SCORE.SYSTEM.norm>
-1.84971

>  <SCORE.heavy>
11

>  <SCORE.norm>
-4.0277

$$$$
P109006999
 OpenBabel12072022113D
libRbt.so/2013.1/901 2013/11/27
 17 16  0  0  0  0  0  0  0  0999 V2000
  -27.6662   12.8408  -17.2584 C   0  0  0  0  0  0  0  0  0  0  0  0
  -27.3328   14.0348  -16.3819 C   0  0  0  0  0  0  0  0  0  0  0  0
  -28.5136   14.7963  -16.0160 N   0  0  0  0  0  0  0  0  0  0  0  0
  -28.5188   16.1587  -16.0328 C   0  0  0  0  0  0  0  0  0  0  0  0
  -27.8443   16.8749  -15.3024 O   0  0  0  0  0  0  0  0  0  0  0  0
  -29.3972   16.6622  -16.9548 N   0  0  0  0  0  0  0  0  0  0  0  0
  -30.1104   17.9266  -16.7700 C   0  0  2  0  0  0  0  0  0  0  0  0
  -31.1462   17.8916  -15.6528 C   0  0  0  0  0  0  0  0  0  0  0  0
  -30.7119   18.3635  -18.0930 C   0  0  0  0  0  0  0  0  0  0  0  0
  -30.0687   18.0727  -19.2082 N   0  3  0  0  0  0  0  0  0  0  0  0
  -30.4324   18.3396  -20.1147 H   0  0  0  0  0  0  0  0  0  0  0  0
  -29.1957   17.5555  -19.1986 H   0  0  0  0  0  0  0  0  0  0  0  0
  -31.8492   19.0248  -18.1189 N   0  0  0  0  0  0  0  0  0  0  0  0
  -29.1859   14.3282  -15.4247 H   0  0  0  0  0  0  0  0  0  0  0  0
  -29.1376   16.4405  -17.9082 H   0  0  0  0  0  0  0  0  0  0  0  0
  -32.3637   19.1575  -17.2359 H   0  0  0  0  0  0  0  0  0  0  0  0
  -32.3143   19.3361  -18.9583 H   0  0  0  0  0  0  0  0  0  0  0  0
  1  2  1  0  0  0  0
  2  3  1  0  0  0  0
  3  4  1  0  0  0  0
  3 14  1  0  0  0  0
  4  5  2  0  0  0  0
  4  6  1  0  0  0  0
  6 15  1  0  0  0  0
  7  8  1  1  0  0  0
  7  9  1  0  0  0  0
  7  6  1  0  0  0  0
  9 10  2  0  0  0  0
  9 13  1  0  0  0  0
 10 11  1  0  0  0  0
 10 12  1  0  0  0  0
 13 16  1  0  0  0  0
 13 17  1  0  0  0  0
M  CHG  1  10   1
M  END
>  <CHROM.0>
51.85066546,43.75841861,-36.81644158,-42.41051423,-51.96933052,-62.95654694
-69.88463909,-176.07500676,-168.56783285

>  <CHROM.1>
-137.34929080,-65.18360793,147.98453302,-33.01609180,-68.07599437,-29.38880078
16.60169381,-16.90828005,0.01856042,0.94685056,-1.90423740

>  <Name>
P109006999

>  <RI>
0

>  <Rbt.Current_Directory>
/home/fstefaniak/projects/zuza/docking/adenine/4TZX

>  <Rbt.Executable>
rbdock ($Id: //depot/dev/client3/rdock/2013.1/src/exe/rbdock.cxx#4 $)

>  <Rbt.Library>
libRbt.so (2013.1, Build901 2013/11/27)

>  <Rbt.Parameter_File>
/home/fstefaniak/progs/rDock//data/scripts/dock_solv.prm

>  <Rbt.Receptor>
4tzx.prm

>  <SCORE>
-55.2557

>  <SCORE.INTER>
-44.1609

>  <SCORE.INTER.CONST>
1

>  <SCORE.INTER.POLAR>
-6.88057

>  <SCORE.INTER.ROT>
5

>  <SCORE.INTER.SOLV>
22.2161

>  <SCORE.INTER.VDW>
-20.8441

>  <SCORE.INTER.norm>
-4.01463

>  <SCORE.INTRA>
4.57698

>  <SCORE.INTRA.DIHEDRAL>
-0.0813202

>  <SCORE.INTRA.DIHEDRAL.0>
4.0121

>  <SCORE.INTRA.POLAR>
0.666718

>  <SCORE.INTRA.POLAR.0>
-0.667506

>  <SCORE.INTRA.REPUL>
0

>  <SCORE.INTRA.REPUL.0>
0

>  <SCORE.INTRA.SOLV>
-1.49519

>  <SCORE.INTRA.SOLV.lig_0>
-33.8655

>  <SCORE.INTRA.VDW>
3.0984

>  <SCORE.INTRA.VDW.0>
0.265114

>  <SCORE.INTRA.norm>
0.416089

>  <SCORE.RESTR>
0

>  <SCORE.RESTR.CAVITY>
0

>  <SCORE.RESTR.norm>
0

>  <SCORE.SYSTEM>
-15.6718

>  <SCORE.SYSTEM.CONST>
0

>  <SCORE.SYSTEM.DIHEDRAL>
8.5824

>  <SCORE.SYSTEM.POLAR>
-2.81802

>  <SCORE.SYSTEM.SOLV>
0.213668

>  <SCORE.SYSTEM.VDW>
-3.98649

>  <SCORE.SYSTEM.norm>
-1.42471

>  <SCORE.heavy>
11

>  <SCORE.norm>
-5.02325

$$$$
P109006999
 OpenBabel12072022113D
libRbt.so/2013.1/901 2013/11/27
 17 16  0  0  0  0  0  0  0  0999 V2000
  -26.0624   13.3665  -16.4675 C   0  0  0  0  0  0  0  0  0  0  0  0
  -27.4975   13.7343  -16.1351 C   0  0  0  0  0  0  0  0  0  0  0  0
  -27.8313   15.0840  -16.5534 N   0  0  0  0  0  0  0  0  0  0  0  0
  -28.9029   15.7479  -16.0363 C   0  0  0  0  0  0  0  0  0  0  0  0
  -29.2439   15.7267  -14.8596 O   0  0  0  0  0  0  0  0  0  0  0  0
  -29.5958   16.4390  -16.9941 N   0  0  0  0  0  0  0  0  0  0  0  0
  -30.1484   17.7755  -16.7709 C   0  0  2  0  0  0  0  0  0  0  0  0
  -31.1209   17.8518  -15.6001 C   0  0  0  0  0  0  0  0  0  0  0  0
  -30.7647   18.2874  -18.0597 C   0  0  0  0  0  0  0  0  0  0  0  0
  -31.8842   18.9834  -17.9939 N   0  3  0  0  0  0  0  0  0  0  0  0
  -32.3304   19.3491  -18.8260 H   0  0  0  0  0  0  0  0  0  0  0  0
  -32.3283   19.1925  -17.1059 H   0  0  0  0  0  0  0  0  0  0  0  0
  -30.1918   18.0324  -19.2166 N   0  0  0  0  0  0  0  0  0  0  0  0
  -27.4882   15.3726  -17.4588 H   0  0  0  0  0  0  0  0  0  0  0  0
  -29.2624   16.2535  -17.9323 H   0  0  0  0  0  0  0  0  0  0  0  0
  -29.2754   17.5610  -19.2207 H   0  0  0  0  0  0  0  0  0  0  0  0
  -30.5355   18.3490  -20.1106 H   0  0  0  0  0  0  0  0  0  0  0  0
  1  2  1  0  0  0  0
  2  3  1  0  0  0  0
  3  4  1  0  0  0  0
  3 14  1  0  0  0  0
  4  5  2  0  0  0  0
  4  6  1  0  0  0  0
  6 15  1  0  0  0  0
  7  8  1  1  0  0  0
  7  9  1  0  0  0  0
  7  6  1  0  0  0  0
  9 10  2  0  0  0  0
  9 13  1  0  0  0  0
 10 11  1  0  0  0  0
 10 12  1  0  0  0  0
 13 16  1  0  0  0  0
 13 17  1  0  0  0  0
M  CHG  1  10   1
M  END
>  <CHROM.0>
-40.17529728,-51.32859428,-64.24740928,-43.03945379,-59.60074449,-61.37312416
-69.01526378,-60.30299881,-167.30827229

>  <CHROM.1>
-161.14257381,40.43102919,-139.90845203,141.79374390,-57.72571887,-29.38861579
16.46094593,-16.81216667,-0.48867255,0.75363784,-1.26950530

>  <Name>
P109006999

>  <RI>
0

>  <Rbt.Current_Directory>
/home/fstefaniak/projects/zuza/docking/adenine/4TZX

>  <Rbt.Executable>
rbdock ($Id: //depot/dev/client3/rdock/2013.1/src/exe/rbdock.cxx#4 $)

>  <Rbt.Library>
libRbt.so (2013.1, Build901 2013/11/27)

>  <Rbt.Parameter_File>
/home/fstefaniak/progs/rDock//data/scripts/dock_solv.prm

>  <Rbt.Receptor>
4tzx.prm

>  <SCORE>
-54.7989

>  <SCORE.INTER>
-39.3587

>  <SCORE.INTER.CONST>
1

>  <SCORE.INTER.POLAR>
-5.85778

>  <SCORE.INTER.ROT>
5

>  <SCORE.INTER.SOLV>
22.2375

>  <SCORE.INTER.VDW>
-21.059

>  <SCORE.INTER.norm>
-3.57807

>  <SCORE.INTRA>
4.39967

>  <SCORE.INTRA.DIHEDRAL>
-0.885494

>  <SCORE.INTRA.DIHEDRAL.0>
4.0121

>  <SCORE.INTRA.POLAR>
0.66513

>  <SCORE.INTRA.POLAR.0>
-0.667506

>  <SCORE.INTRA.REPUL>
0

>  <SCORE.INTRA.REPUL.0>
0

>  <SCORE.INTRA.SOLV>
-1.60751

>  <SCORE.INTRA.SOLV.lig_0>
-33.8655

>  <SCORE.INTRA.VDW>
3.38473

>  <SCORE.INTRA.VDW.0>
0.265114

>  <SCORE.INTRA.norm>
0.39997

>  <SCORE.RESTR>
0

>  <SCORE.RESTR.CAVITY>
0

>  <SCORE.RESTR.norm>
0

>  <SCORE.SYSTEM>
-19.8399

>  <SCORE.SYSTEM.CONST>
0

>  <SCORE.SYSTEM.DIHEDRAL>
6.5762

>  <SCORE.SYSTEM.POLAR>
-3.20629

>  <SCORE.SYSTEM.SOLV>
0.21667

>  <SCORE.SYSTEM.VDW>
-4.80323

>  <SCORE.SYSTEM.norm>
-1.80363

>  <SCORE.heavy>
11

>  <SCORE.norm>
-4.98172

$$$$
P109006999
 OpenBabel12072022113D
libRbt.so/2013.1/901 2013/11/27
 17 16  0  0  0  0  0  0  0  0999 V2000
  -31.3752   17.9636  -13.8601 C   0  0  0  0  0  0  0  0  0  0  0  0
  -31.1399   17.4519  -15.2700 C   0  0  0  0  0  0  0  0  0  0  0  0
  -30.5251   16.1366  -15.2833 N   0  0  0  0  0  0  0  0  0  0  0  0
  -29.1739   15.9786  -15.2072 C   0  0  0  0  0  0  0  0  0  0  0  0
  -28.3929   16.8033  -14.7475 O   0  0  0  0  0  0  0  0  0  0  0  0
  -28.7613   14.7842  -15.7348 N   0  0  0  0  0  0  0  0  0  0  0  0
  -27.7880   14.6863  -16.8231 C   0  0  2  0  0  0  0  0  0  0  0  0
  -27.7778   13.3311  -17.5199 C   0  0  0  0  0  0  0  0  0  0  0  0
  -26.4145   15.0733  -16.3066 C   0  0  0  0  0  0  0  0  0  0  0  0
  -25.6200   14.1248  -15.8471 N   0  3  0  0  0  0  0  0  0  0  0  0
  -24.6935   14.3336  -15.4960 H   0  0  0  0  0  0  0  0  0  0  0  0
  -25.9020   13.1500  -15.8457 H   0  0  0  0  0  0  0  0  0  0  0  0
  -26.0331   16.3327  -16.3139 N   0  0  0  0  0  0  0  0  0  0  0  0
  -31.0657   15.3911  -15.6989 H   0  0  0  0  0  0  0  0  0  0  0  0
  -28.7272   14.0409  -15.0478 H   0  0  0  0  0  0  0  0  0  0  0  0
  -26.6458   17.0317  -16.7589 H   0  0  0  0  0  0  0  0  0  0  0  0
  -25.1334   16.6629  -15.9990 H   0  0  0  0  0  0  0  0  0  0  0  0
  1  2  1  0  0  0  0
  2  3  1  0  0  0  0
  3  4  1  0  0  0  0
  3 14  1  0  0  0  0
  4  5  2  0  0  0  0
  4  6  1  0  0  0  0
  6 15  1  0  0  0  0
  7  8  1  1  0  0  0
  7  9  1  0  0  0  0
  7  6  1  0  0  0  0
  9 10  2  0  0  0  0
  9 13  1  0  0  0  0
 10 11  1  0  0  0  0
 10 12  1  0  0  0  0
 13 16  1  0  0  0  0
 13 17  1  0  0  0  0
M  CHG  1  10   1
M  END
>  <CHROM.0>
-57.03977123,-173.28205882,-56.44618841,-42.30785904,-55.26157504,-58.98549631
-63.46273128,-58.68144808,-168.22518267

>  <CHROM.1>
-85.77580570,22.24314456,122.73204600,92.09679475,-163.07505823,-28.43525291
15.69830306,-15.70236025,-2.48683481,-0.03686674,-2.60370273

>  <Name>
P109006999

>  <RI>
0

>  <Rbt.Current_Directory>
/home/fstefaniak/projects/zuza/docking/adenine/4TZX

>  <Rbt.Executable>
rbdock ($Id: //depot/dev/client3/rdock/2013.1/src/exe/rbdock.cxx#4 $)

>  <Rbt.Library>
libRbt.so (2013.1, Build901 2013/11/27)

>  <Rbt.Parameter_File>
/home/fstefaniak/progs/rDock//data/scripts/dock_solv.prm

>  <Rbt.Receptor>
4tzx.prm

>  <SCORE>
-54.4688

>  <SCORE.INTER>
-35.2927

>  <SCORE.INTER.CONST>
1

>  <SCORE.INTER.POLAR>
-5.45171

>  <SCORE.INTER.ROT>
5

>  <SCORE.INTER.SOLV>
17.1425

>  <SCORE.INTER.VDW>
-18.0036

>  <SCORE.INTER.norm>
-3.20843

>  <SCORE.INTRA>
1.44184

>  <SCORE.INTRA.DIHEDRAL>
0.100337

>  <SCORE.INTRA.DIHEDRAL.0>
4.0121

>  <SCORE.INTRA.POLAR>
0.65827

>  <SCORE.INTRA.POLAR.0>
-0.667506

>  <SCORE.INTRA.REPUL>
0

>  <SCORE.INTRA.REPUL.0>
0

>  <SCORE.INTRA.SOLV>
-0.857486

>  <SCORE.INTRA.SOLV.lig_0>
-33.8655

>  <SCORE.INTRA.VDW>
-0.417705

>  <SCORE.INTRA.VDW.0>
0.265114

>  <SCORE.INTRA.norm>
0.131076

>  <SCORE.RESTR>
0

>  <SCORE.RESTR.CAVITY>
0

>  <SCORE.RESTR.norm>
0

>  <SCORE.SYSTEM>
-20.618

>  <SCORE.SYSTEM.CONST>
0

>  <SCORE.SYSTEM.DIHEDRAL>
4.61196

>  <SCORE.SYSTEM.POLAR>
-3.11213

>  <SCORE.SYSTEM.SOLV>
0.192674

>  <SCORE.SYSTEM.VDW>
-4.9731

>  <SCORE.SYSTEM.norm>
-1.87436

>  <SCORE.heavy>
11

>  <SCORE.norm>
-4.95171

$$$$
P109007011
 OpenBabel12072022113D
libRbt.so/2013.1/901 2013/11/27
 18 18  0  0  0  0  0  0  0  0999 V2000
  -27.7317   13.0548  -17.5065 C   0  0  0  0  0  0  0  0  0  0  0  0
  -27.7468   14.4795  -16.9654 C   0  0  2  0  0  0  0  0  0  0  0  0
  -26.3931   14.8970  -16.4201 C   0  0  0  0  0  0  0  0  0  0  0  0
  -26.0274   16.1607  -16.4428 N   0  3  0  0  0  0  0  0  0  0  0  0
  -25.1415   16.5093  -16.1089 H   0  0  0  0  0  0  0  0  0  0  0  0
  -26.6370   16.8446  -16.9153 H   0  0  0  0  0  0  0  0  0  0  0  0
  -25.6009   13.9698  -15.9156 N   0  0  0  0  0  0  0  0  0  0  0  0
  -28.7795   14.7141  -15.9541 N   0  0  0  0  0  0  0  0  0  0  0  0
  -29.3397   15.9476  -15.7328 C   0  0  0  0  0  0  0  0  0  0  0  0
  -29.7156   16.3058  -14.6214 O   0  0  0  0  0  0  0  0  0  0  0  0
  -29.4021   16.7080  -16.8684 N   0  0  0  0  0  0  0  0  0  0  0  0
  -29.9025   18.0481  -16.8574 C   0  0  0  0  0  0  0  0  0  0  0  0
  -30.5219   18.6309  -18.0982 C   0  0  0  0  0  0  0  0  0  0  0  0
  -31.3782   18.3295  -16.9042 C   0  0  0  0  0  0  0  0  0  0  0  0
  -25.8702   12.9917  -15.8977 H   0  0  0  0  0  0  0  0  0  0  0  0
  -24.6883   14.1990  -15.5413 H   0  0  0  0  0  0  0  0  0  0  0  0
  -28.6991   14.1568  -15.1125 H   0  0  0  0  0  0  0  0  0  0  0  0
  -28.8322   16.4425  -17.6611 H   0  0  0  0  0  0  0  0  0  0  0  0
  2  3  1  0  0  0  0
  2  8  1  0  0  0  0
  2  1  1  1  0  0  0
  3  4  2  0  0  0  0
  3  7  1  0  0  0  0
  4  5  1  0  0  0  0
  4  6  1  0  0  0  0
  7 15  1  0  0  0  0
  7 16  1  0  0  0  0
  8  9  1  0  0  0  0
  8 17  1  0  0  0  0
  9 10  2  0  0  0  0
  9 11  1  0  0  0  0
 11 12  1  0  0  0  0
 11 18  1  0  0  0  0
 12 13  1  0  0  0  0
 12 14  1  0  0  0  0
 13 14  1  0  0  0  0
M  CHG  1   4   1
M  END
>  <CHROM.0>
-61.23494329,-65.67247111,-64.58640626,-43.53949162,-61.54528390,-63.73636024
-63.71696213,-57.41704170,-169.17127395

>  <CHROM.1>
150.95498280,-152.66403644,-147.48375620,-152.89462456,-28.49973723,15.90660268
-16.50263235,0.73135684,-0.23513324,2.75577015

>  <Name>
P109007011

>  <RI>
0

>  <Rbt.Current_Directory>
/home/fstefaniak/projects/zuza/docking/adenine/4TZX

>  <Rbt.Executable>
rbdock ($Id: //depot/dev/client3/rdock/2013.1/src/exe/rbdock.cxx#4 $)

>  <Rbt.Library>
libRbt.so (2013.1, Build901 2013/11/27)

>  <Rbt.Parameter_File>
/home/fstefaniak/progs/rDock//data/scripts/dock_solv.prm

>  <Rbt.Receptor>
4tzx.prm

>  <SCORE>
-57.5425

>  <SCORE.INTER>
-39.369

>  <SCORE.INTER.CONST>
1

>  <SCORE.INTER.POLAR>
-5.05665

>  <SCORE.INTER.ROT>
4

>  <SCORE.INTER.SOLV>
16.5499

>  <SCORE.INTER.VDW>
-21.1738

>  <SCORE.INTER.norm>
-3.28075

>  <SCORE.INTRA>
2.9472

>  <SCORE.INTRA.DIHEDRAL>
0.0737144

>  <SCORE.INTRA.DIHEDRAL.0>
3.44945

>  <SCORE.INTRA.POLAR>
0.68438

>  <SCORE.INTRA.POLAR.0>
-0.68438

>  <SCORE.INTRA.REPUL>
0

>  <SCORE.INTRA.REPUL.0>
0

>  <SCORE.INTRA.SOLV>
-0.18614

>  <SCORE.INTRA.SOLV.lig_0>
-35.3507

>  <SCORE.INTRA.VDW>
0.676518

>  <SCORE.INTRA.VDW.0>
-0.227401

>  <SCORE.INTRA.norm>
0.2456

>  <SCORE.RESTR>
0

>  <SCORE.RESTR.CAVITY>
0

>  <SCORE.RESTR.norm>
0

>  <SCORE.SYSTEM>
-21.1207

>  <SCORE.SYSTEM.CONST>
0

>  <SCORE.SYSTEM.DIHEDRAL>
4.28704

>  <SCORE.SYSTEM.POLAR>
-3.03777

>  <SCORE.SYSTEM.SOLV>
0.184404

>  <SCORE.SYSTEM.VDW>
-5.44506

>  <SCORE.SYSTEM.norm>
-1.76006

>  <SCORE.heavy>
12

>  <SCORE.norm>
-4.79521

$$$$
P109007011
 OpenBabel12072022113D
libRbt.so/2013.1/901 2013/11/27
 18 18  0  0  0  0  0  0  0  0999 V2000
  -27.9637   13.6832  -16.4059 C   0  0  0  0  0  0  0  0  0  0  0  0
  -27.3961   15.0645  -16.7101 C   0  0  2  0  0  0  0  0  0  0  0  0
  -25.8783   15.0674  -16.7227 C   0  0  0  0  0  0  0  0  0  0  0  0
  -25.2103   13.9340  -16.7006 N   0  3  0  0  0  0  0  0  0  0  0  0
  -24.2042   13.8593  -16.6964 H   0  0  0  0  0  0  0  0  0  0  0  0
  -25.7330   13.0530  -16.5860 H   0  0  0  0  0  0  0  0  0  0  0  0
  -25.2481   16.2263  -16.7674 N   0  0  0  0  0  0  0  0  0  0  0  0
  -27.8839   16.1123  -15.8110 N   0  0  0  0  0  0  0  0  0  0  0  0
  -29.1530   16.6297  -15.8882 C   0  0  0  0  0  0  0  0  0  0  0  0
  -29.9095   16.6543  -14.9228 O   0  0  0  0  0  0  0  0  0  0  0  0
  -29.4469   17.1176  -17.1320 N   0  0  0  0  0  0  0  0  0  0  0  0
  -30.6970   17.7494  -17.4230 C   0  0  0  0  0  0  0  0  0  0  0  0
  -30.8410   19.2392  -17.2717 C   0  0  0  0  0  0  0  0  0  0  0  0
  -30.8669   18.6190  -18.6371 C   0  0  0  0  0  0  0  0  0  0  0  0
  -25.7527   17.1065  -16.7795 H   0  0  0  0  0  0  0  0  0  0  0  0
  -24.2369   16.2795  -16.7762 H   0  0  0  0  0  0  0  0  0  0  0  0
  -27.1931   16.7940  -15.5219 H   0  0  0  0  0  0  0  0  0  0  0  0
  -28.6859   17.2997  -17.7733 H   0  0  0  0  0  0  0  0  0  0  0  0
  2  3  1  0  0  0  0
  2  8  1  0  0  0  0
  2  1  1  1  0  0  0
  3  4  2  0  0  0  0
  3  7  1  0  0  0  0
  4  5  1  0  0  0  0
  4  6  1  0  0  0  0
  7 15  1  0  0  0  0
  7 16  1  0  0  0  0
  8  9  1  0  0  0  0
  8 17  1  0  0  0  0
  9 10  2  0  0  0  0
  9 11  1  0  0  0  0
 11 12  1  0  0  0  0
 11 18  1  0  0  0  0
 12 13  1  0  0  0  0
 12 14  1  0  0  0  0
 13 14  1  0  0  0  0
M  CHG  1   4   1
M  END
>  <CHROM.0>
-60.72932883,-63.15845818,-60.32960024,-44.03741336,-52.67965218,-173.11318921
-67.74286958,-55.04381375,-168.81205619

>  <CHROM.1>
10.84541779,-74.16717877,125.58024119,91.32223861,-28.31779391,16.31889814
-16.68181509,0.59026014,-0.32791168,2.48589449

>  <Name>
P109007011

>  <RI>
0

>  <Rbt.Current_Directory>
/home/fstefaniak/projects/zuza/docking/adenine/4TZX

>  <Rbt.Executable>
rbdock ($Id: //depot/dev/client3/rdock/2013.1/src/exe/rbdock.cxx#4 $)

>  <Rbt.Library>
libRbt.so (2013.1, Build901 2013/11/27)

>  <Rbt.Parameter_File>
/home/fstefaniak/progs/rDock//data/scripts/dock_solv.prm

>  <Rbt.Receptor>
4tzx.prm

>  <SCORE>
-54.5995

>  <SCORE.INTER>
-38.1687

>  <SCORE.INTER.CONST>
1

>  <SCORE.INTER.POLAR>
-4.82919

>  <SCORE.INTER.ROT>
4

>  <SCORE.INTER.SOLV>
18.5693

>  <SCORE.INTER.VDW>
-21.8049

>  <SCORE.INTER.norm>
-3.18073

>  <SCORE.INTRA>
4.30393

>  <SCORE.INTRA.DIHEDRAL>
0.599549

>  <SCORE.INTRA.DIHEDRAL.0>
3.44945

>  <SCORE.INTRA.POLAR>
0.684212

>  <SCORE.INTRA.POLAR.0>
-0.68438

>  <SCORE.INTRA.REPUL>
0

>  <SCORE.INTRA.REPUL.0>
0

>  <SCORE.INTRA.SOLV>
-1.09942

>  <SCORE.INTRA.SOLV.lig_0>
-35.3507

>  <SCORE.INTRA.VDW>
2.22754

>  <SCORE.INTRA.VDW.0>
-0.227401

>  <SCORE.INTRA.norm>
0.35866

>  <SCORE.RESTR>
0

>  <SCORE.RESTR.CAVITY>
0

>  <SCORE.RESTR.norm>
0

>  <SCORE.SYSTEM>
-20.7347

>  <SCORE.SYSTEM.CONST>
0

>  <SCORE.SYSTEM.DIHEDRAL>
4.71377

>  <SCORE.SYSTEM.POLAR>
-3.05609

>  <SCORE.SYSTEM.SOLV>
0.0816901

>  <SCORE.SYSTEM.VDW>
-5.23465

>  <SCORE.SYSTEM.norm>
-1.72789

>  <SCORE.heavy>
12

>  <SCORE.norm>
-4.54995

$$$$
P109007011
 OpenBabel12072022113D
libRbt.so/2013.1/901 2013/11/27
 18 18  0  0  0  0  0  0  0  0999 V2000
  -25.4781   16.4223  -16.5362 C   0  0  0  0  0  0  0  0  0  0  0  0
  -26.3854   15.2324  -16.2468 C   0  0  2  0  0  0  0  0  0  0  0  0
  -25.9826   14.0019  -17.0390 C   0  0  0  0  0  0  0  0  0  0  0  0
  -24.8377   13.4002  -16.7973 N   0  3  0  0  0  0  0  0  0  0  0  0
  -24.5003   12.5867  -17.2895 H   0  0  0  0  0  0  0  0  0  0  0  0
  -24.1844   13.8294  -16.1254 H   0  0  0  0  0  0  0  0  0  0  0  0
  -26.8077   13.5459  -17.9626 N   0  0  0  0  0  0  0  0  0  0  0  0
  -27.8073   15.5114  -16.4582 N   0  0  0  0  0  0  0  0  0  0  0  0
  -28.4056   16.6796  -16.0563 C   0  0  0  0  0  0  0  0  0  0  0  0
  -28.1403   17.2162  -14.9855 O   0  0  0  0  0  0  0  0  0  0  0  0
  -29.2891   17.1632  -16.9822 N   0  0  0  0  0  0  0  0  0  0  0  0
  -29.9873   18.3973  -16.7921 C   0  0  0  0  0  0  0  0  0  0  0  0
  -30.7158   19.0353  -17.9433 C   0  0  0  0  0  0  0  0  0  0  0  0
  -31.4893   18.4520  -16.7982 C   0  0  0  0  0  0  0  0  0  0  0  0
  -27.6906   14.0048  -18.1611 H   0  0  0  0  0  0  0  0  0  0  0  0
  -26.5827   12.7293  -18.5176 H   0  0  0  0  0  0  0  0  0  0  0  0
  -28.4217   14.7087  -16.3990 H   0  0  0  0  0  0  0  0  0  0  0  0
  -29.2402   16.8103  -17.9290 H   0  0  0  0  0  0  0  0  0  0  0  0
  2  3  1  0  0  0  0
  2  8  1  0  0  0  0
  2  1  1  6  0  0  0
  3  4  2  0  0  0  0
  3  7  1  0  0  0  0
  4  5  1  0  0  0  0
  4  6  1  0  0  0  0
  7 15  1  0  0  0  0
  7 16  1  0  0  0  0
  8  9  1  0  0  0  0
  8 17  1  0  0  0  0
  9 10  2  0  0  0  0
  9 11  1  0  0  0  0
 11 12  1  0  0  0  0
 11 18  1  0  0  0  0
 12 13  1  0  0  0  0
 12 14  1  0  0  0  0
 13 14  1  0  0  0  0
M  CHG  1   4   1
M  END
>  <CHROM.0>
-63.53540155,-75.46581452,-71.23219167,-43.95482021,-179.57614340,-62.15213316
-170.14993476,-65.62680887,-168.64622613

>  <CHROM.1>
66.70006071,-42.41394186,-40.19709720,166.98437532,-27.90529416,16.20672133
-16.72587568,-0.53649202,-0.52747841,0.69874121

>  <Name>
P109007011

>  <RI>
0

>  <Rbt.Current_Directory>
/home/fstefaniak/projects/zuza/docking/adenine/4TZX

>  <Rbt.Executable>
rbdock ($Id: //depot/dev/client3/rdock/2013.1/src/exe/rbdock.cxx#4 $)

>  <Rbt.Library>
libRbt.so (2013.1, Build901 2013/11/27)

>  <Rbt.Parameter_File>
/home/fstefaniak/progs/rDock//data/scripts/dock_solv.prm

>  <Rbt.Receptor>
4tzx.prm

>  <SCORE>
-54.078

>  <SCORE.INTER>
-34.7456

>  <SCORE.INTER.CONST>
1

>  <SCORE.INTER.POLAR>
-4.39858

>  <SCORE.INTER.ROT>
4

>  <SCORE.INTER.SOLV>
18.8824

>  <SCORE.INTER.VDW>
-21.0625

>  <SCORE.INTER.norm>
-2.89546

>  <SCORE.INTRA>
0.982281

>  <SCORE.INTRA.DIHEDRAL>
-0.273845

>  <SCORE.INTRA.DIHEDRAL.0>
3.44945

>  <SCORE.INTRA.POLAR>
0.660416

>  <SCORE.INTRA.POLAR.0>
-0.68438

>  <SCORE.INTRA.REPUL>
0

>  <SCORE.INTRA.REPUL.0>
0

>  <SCORE.INTRA.SOLV>
-1.5109

>  <SCORE.INTRA.SOLV.lig_0>
-35.3507

>  <SCORE.INTRA.VDW>
-0.37076

>  <SCORE.INTRA.VDW.0>
-0.227401

>  <SCORE.INTRA.norm>
0.0818567

>  <SCORE.RESTR>
0

>  <SCORE.RESTR.CAVITY>
0

>  <SCORE.RESTR.norm>
0

>  <SCORE.SYSTEM>
-20.3147

>  <SCORE.SYSTEM.CONST>
0

>  <SCORE.SYSTEM.DIHEDRAL>
6.16323

>  <SCORE.SYSTEM.POLAR>
-2.99627

>  <SCORE.SYSTEM.SOLV>
-0.0585579

>  <SCORE.SYSTEM.VDW>
-5.59048

>  <SCORE.SYSTEM.norm>
-1.69289

>  <SCORE.heavy>
12

>  <SCORE.norm>
-4.5065

$$$$
P109007214
 OpenBabel12072022113D
libRbt.so/2013.1/901 2013/11/27
 16 15  0  0  0  0  0  0  0  0999 V2000
  -27.5351   12.8272  -17.0160 C   0  0  0  0  0  0  0  0  0  0  0  0
  -28.0788   13.8848  -16.0719 C   0  0  0  0  0  0  0  0  0  0  0  0
  -28.4555   15.0936  -16.7819 N   0  0  0  0  0  0  0  0  0  0  0  0
  -29.1975   16.0710  -16.1927 C   0  0  0  0  0  0  0  0  0  0  0  0
  -29.6331   16.0414  -15.0468 O   0  0  0  0  0  0  0  0  0  0  0  0
  -29.4070   17.1419  -17.0247 N   0  0  0  0  0  0  0  0  0  0  0  0
  -30.6854   17.8355  -16.9889 C   0  0  0  0  0  0  0  0  0  0  0  0
  -30.7665   18.7578  -18.1781 C   0  0  0  0  0  0  0  0  0  0  0  0
  -30.5968   20.0532  -17.9968 N   0  3  0  0  0  0  0  0  0  0  0  0
  -30.6445   20.7075  -18.7680 H   0  0  0  0  0  0  0  0  0  0  0  0
  -30.4311   20.4409  -17.0739 H   0  0  0  0  0  0  0  0  0  0  0  0
  -30.9942   18.2486  -19.3701 N   0  0  0  0  0  0  0  0  0  0  0  0
  -27.9110   15.3280  -17.6000 H   0  0  0  0  0  0  0  0  0  0  0  0
  -29.0007   17.0073  -17.9426 H   0  0  0  0  0  0  0  0  0  0  0  0
  -31.1999   17.2409  -19.4397 H   0  0  0  0  0  0  0  0  0  0  0  0
  -31.0747   18.7882  -20.2188 H   0  0  0  0  0  0  0  0  0  0  0  0
  1  2  1  0  0  0  0
  2  3  1  0  0  0  0
  3  4  1  0  0  0  0
  3 13  1  0  0  0  0
  4  5  2  0  0  0  0
  4  6  1  0  0  0  0
  6  7  1  0  0  0  0
  6 14  1  0  0  0  0
  7  8  1  0  0  0  0
  8  9  2  0  0  0  0
  8 12  1  0  0  0  0
  9 10  1  0  0  0  0
  9 11  1  0  0  0  0
 12 15  1  0  0  0  0
 12 16  1  0  0  0  0
M  CHG  1   9   1
M  END
>  <CHROM.0>
-42.99470946,-68.07086180,-72.36706703,-43.38454161,-178.53735116,-61.91599792
-170.98511657,-60.17318187,-168.72801359

>  <CHROM.1>
167.15785023,143.18879436,-167.98187552,-104.21198571,-29.53104011,16.60750938
-17.09530051,-0.27934363,1.09677219,-1.61269657

>  <Name>
P109007214

>  <RI>
0

>  <Rbt.Current_Directory>
/home/fstefaniak/projects/zuza/docking/adenine/4TZX

>  <Rbt.Executable>
rbdock ($Id: //depot/dev/client3/rdock/2013.1/src/exe/rbdock.cxx#4 $)

>  <Rbt.Library>
libRbt.so (2013.1, Build901 2013/11/27)

>  <Rbt.Parameter_File>
/home/fstefaniak/progs/rDock//data/scripts/dock_solv.prm

>  <Rbt.Receptor>
4tzx.prm

>  <SCORE>
-55.1547

>  <SCORE.INTER>
-36.0494

>  <SCORE.INTER.CONST>
1

>  <SCORE.INTER.POLAR>
-6.25075

>  <SCORE.INTER.ROT>
4

>  <SCORE.INTER.SOLV>
25.9857

>  <SCORE.INTER.VDW>
-18.1257

>  <SCORE.INTER.norm>
-3.60494

>  <SCORE.INTRA>
0.920943

>  <SCORE.INTRA.DIHEDRAL>
-0.0942587

>  <SCORE.INTRA.DIHEDRAL.0>
3.19965

>  <SCORE.INTRA.POLAR>
0.705276

>  <SCORE.INTRA.POLAR.0>
-0.705998

>  <SCORE.INTRA.REPUL>
0

>  <SCORE.INTRA.REPUL.0>
0

>  <SCORE.INTRA.SOLV>
-2.43223

>  <SCORE.INTRA.SOLV.lig_0>
-36.7784

>  <SCORE.INTRA.VDW>
-0.213752

>  <SCORE.INTRA.VDW.0>
0.291192

>  <SCORE.INTRA.norm>
0.0920943

>  <SCORE.RESTR>
0

>  <SCORE.RESTR.CAVITY>
0

>  <SCORE.RESTR.norm>
0

>  <SCORE.SYSTEM>
-20.0263

>  <SCORE.SYSTEM.CONST>
0

>  <SCORE.SYSTEM.DIHEDRAL>
6.54093

>  <SCORE.SYSTEM.POLAR>
-3.16273

>  <SCORE.SYSTEM.SOLV>
-0.0149858

>  <SCORE.SYSTEM.VDW>
-4.98373

>  <SCORE.SYSTEM.norm>
-2.00263

>  <SCORE.heavy>
10

>  <SCORE.norm>
-5.51547

$$$$
P109007214
 OpenBabel12072022113D
libRbt.so/2013.1/901 2013/11/27
 16 15  0  0  0  0  0  0  0  0999 V2000
  -30.6637   18.8527  -17.3537 C   0  0  0  0  0  0  0  0  0  0  0  0
  -30.3701   17.7069  -16.4018 C   0  0  0  0  0  0  0  0  0  0  0  0
  -29.2037   16.9500  -16.8187 N   0  0  0  0  0  0  0  0  0  0  0  0
  -28.5980   16.0518  -15.9943 C   0  0  0  0  0  0  0  0  0  0  0  0
  -28.9392   15.7979  -14.8443 O   0  0  0  0  0  0  0  0  0  0  0  0
  -27.5401   15.4192  -16.5974 N   0  0  0  0  0  0  0  0  0  0  0  0
  -26.2672   15.3311  -15.8984 C   0  0  0  0  0  0  0  0  0  0  0  0
  -25.4324   16.5312  -16.2647 C   0  0  0  0  0  0  0  0  0  0  0  0
  -25.4308   17.5791  -15.4638 N   0  3  0  0  0  0  0  0  0  0  0  0
  -24.8852   18.4059  -15.6730 H   0  0  0  0  0  0  0  0  0  0  0  0
  -25.9919   17.5996  -14.6186 H   0  0  0  0  0  0  0  0  0  0  0  0
  -24.7170   16.5017  -17.3691 N   0  0  0  0  0  0  0  0  0  0  0  0
  -29.0400   16.8791  -17.8132 H   0  0  0  0  0  0  0  0  0  0  0  0
  -27.4886   15.6078  -17.5911 H   0  0  0  0  0  0  0  0  0  0  0  0
  -24.8208   15.6906  -17.9968 H   0  0  0  0  0  0  0  0  0  0  0  0
  -24.1385   17.2598  -17.6984 H   0  0  0  0  0  0  0  0  0  0  0  0
  1  2  1  0  0  0  0
  2  3  1  0  0  0  0
  3  4  1  0  0  0  0
  3 13  1  0  0  0  0
  4  5  2  0  0  0  0
  4  6  1  0  0  0  0
  6  7  1  0  0  0  0
  6 14  1  0  0  0  0
  7  8  1  0  0  0  0
  8  9  2  0  0  0  0
  8 12  1  0  0  0  0
  9 10  1  0  0  0  0
  9 11  1  0  0  0  0
 12 15  1  0  0  0  0
 12 16  1  0  0  0  0
M  CHG  1   9   1
M  END
>  <CHROM.0>
-61.83448867,-62.90466789,-66.82940954,-43.05174977,-175.19822968,-60.03852865
-60.46050656,55.55410384,-168.88703123

>  <CHROM.1>
166.89768633,131.44411928,-90.67668089,96.20484087,-27.70435952,16.69580700
-16.31765805,-2.89625555,-0.09002349,2.60609484

>  <Name>
P109007214

>  <RI>
0

>  <Rbt.Current_Directory>
/home/fstefaniak/projects/zuza/docking/adenine/4TZX

>  <Rbt.Executable>
rbdock ($Id: //depot/dev/client3/rdock/2013.1/src/exe/rbdock.cxx#4 $)

>  <Rbt.Library>
libRbt.so (2013.1, Build901 2013/11/27)

>  <Rbt.Parameter_File>
/home/fstefaniak/progs/rDock//data/scripts/dock_solv.prm

>  <Rbt.Receptor>
4tzx.prm

>  <SCORE>
-54.5069

>  <SCORE.INTER>
-35.1023

>  <SCORE.INTER.CONST>
1

>  <SCORE.INTER.POLAR>
-6.03344

>  <SCORE.INTER.ROT>
4

>  <SCORE.INTER.SOLV>
22.3742

>  <SCORE.INTER.VDW>
-17.0148

>  <SCORE.INTER.norm>
-3.51023

>  <SCORE.INTRA>
0.808803

>  <SCORE.INTRA.DIHEDRAL>
-0.14085

>  <SCORE.INTRA.DIHEDRAL.0>
3.19965

>  <SCORE.INTRA.POLAR>
0.705998

>  <SCORE.INTRA.POLAR.0>
-0.705998

>  <SCORE.INTRA.REPUL>
0

>  <SCORE.INTRA.REPUL.0>
0

>  <SCORE.INTRA.SOLV>
-1.41614

>  <SCORE.INTRA.SOLV.lig_0>
-36.7784

>  <SCORE.INTRA.VDW>
-0.813098

>  <SCORE.INTRA.VDW.0>
0.291192

>  <SCORE.INTRA.norm>
0.0808803

>  <SCORE.RESTR>
0

>  <SCORE.RESTR.CAVITY>
0

>  <SCORE.RESTR.norm>
0

>  <SCORE.SYSTEM>
-20.2134

>  <SCORE.SYSTEM.CONST>
0

>  <SCORE.SYSTEM.DIHEDRAL>
4.41921

>  <SCORE.SYSTEM.POLAR>
-3.0393

>  <SCORE.SYSTEM.SOLV>
-0.158209

>  <SCORE.SYSTEM.VDW>
-4.76496

>  <SCORE.SYSTEM.norm>
-2.02134

>  <SCORE.heavy>
10

>  <SCORE.norm>
-5.45069

$$$$
P109007214
 OpenBabel12072022113D
libRbt.so/2013.1/901 2013/11/27
 16 15  0  0  0  0  0  0  0  0999 V2000
  -30.6752   18.7720  -17.5656 C   0  0  0  0  0  0  0  0  0  0  0  0
  -30.2618   17.8181  -16.4591 C   0  0  0  0  0  0  0  0  0  0  0  0
  -29.1318   16.9971  -16.8544 N   0  0  0  0  0  0  0  0  0  0  0  0
  -28.5578   16.1058  -16.0004 C   0  0  0  0  0  0  0  0  0  0  0  0
  -28.9001   15.9103  -14.8393 O   0  0  0  0  0  0  0  0  0  0  0  0
  -27.5326   15.4065  -16.5858 N   0  0  0  0  0  0  0  0  0  0  0  0
  -26.2501   15.3146  -15.9050 C   0  0  0  0  0  0  0  0  0  0  0  0
  -25.4164   16.5114  -16.2846 C   0  0  0  0  0  0  0  0  0  0  0  0
  -25.4177   17.5690  -15.4965 N   0  3  0  0  0  0  0  0  0  0  0  0
  -24.8730   18.3941  -15.7148 H   0  0  0  0  0  0  0  0  0  0  0  0
  -25.9803   17.5990  -14.6526 H   0  0  0  0  0  0  0  0  0  0  0  0
  -24.6991   16.4696  -17.3873 N   0  0  0  0  0  0  0  0  0  0  0  0
  -28.9793   16.8818  -17.8465 H   0  0  0  0  0  0  0  0  0  0  0  0
  -27.4940   15.5387  -17.5891 H   0  0  0  0  0  0  0  0  0  0  0  0
  -24.8005   15.6507  -18.0052 H   0  0  0  0  0  0  0  0  0  0  0  0
  -24.1211   17.2244  -17.7248 H   0  0  0  0  0  0  0  0  0  0  0  0
  1  2  1  0  0  0  0
  2  3  1  0  0  0  0
  3  4  1  0  0  0  0
  3 13  1  0  0  0  0
  4  5  2  0  0  0  0
  4  6  1  0  0  0  0
  6  7  1  0  0  0  0
  6 14  1  0  0  0  0
  7  8  1  0  0  0  0
  8  9  2  0  0  0  0
  8 12  1  0  0  0  0
  9 10  1  0  0  0  0
  9 11  1  0  0  0  0
 12 15  1  0  0  0  0
 12 16  1  0  0  0  0
M  CHG  1   9   1
M  END
>  <CHROM.0>
-55.90517982,-68.57689758,-70.84267968,-41.71267731,61.22776645,-175.59476128
-174.65046855,-174.16437761,-168.53514118

>  <CHROM.1>
177.37527685,130.16123279,-87.15447403,95.04567040,-27.67302325,16.71000502
-16.35559666,-2.87886380,-0.09952047,2.52935182

>  <Name>
P109007214

>  <RI>
0

>  <Rbt.Current_Directory>
/home/fstefaniak/projects/zuza/docking/adenine/4TZX

>  <Rbt.Executable>
rbdock ($Id: //depot/dev/client3/rdock/2013.1/src/exe/rbdock.cxx#4 $)

>  <Rbt.Library>
libRbt.so (2013.1, Build901 2013/11/27)

>  <Rbt.Parameter_File>
/home/fstefaniak/progs/rDock//data/scripts/dock_solv.prm

>  <Rbt.Receptor>
4tzx.prm

>  <SCORE>
-53.8802

>  <SCORE.INTER>
-35.5753

>  <SCORE.INTER.CONST>
1

>  <SCORE.INTER.POLAR>
-6.01763

>  <SCORE.INTER.ROT>
4

>  <SCORE.INTER.SOLV>
22.4107

>  <SCORE.INTER.VDW>
-17.395

>  <SCORE.INTER.norm>
-3.55753

>  <SCORE.INTRA>
0.976323

>  <SCORE.INTRA.DIHEDRAL>
-0.109006

>  <SCORE.INTRA.DIHEDRAL.0>
3.19965

>  <SCORE.INTRA.POLAR>
0.705998

>  <SCORE.INTRA.POLAR.0>
-0.705998

>  <SCORE.INTRA.REPUL>
0

>  <SCORE.INTRA.REPUL.0>
0

>  <SCORE.INTRA.SOLV>
-1.28858

>  <SCORE.INTRA.SOLV.lig_0>
-36.7784

>  <SCORE.INTRA.VDW>
-0.725277

>  <SCORE.INTRA.VDW.0>
0.291192

>  <SCORE.INTRA.norm>
0.0976323

>  <SCORE.RESTR>
0

>  <SCORE.RESTR.CAVITY>
0

>  <SCORE.RESTR.norm>
0

>  <SCORE.SYSTEM>
-19.2812

>  <SCORE.SYSTEM.CONST>
0

>  <SCORE.SYSTEM.DIHEDRAL>
5.51447

>  <SCORE.SYSTEM.POLAR>
-3.08414

>  <SCORE.SYSTEM.SOLV>
-0.306318

>  <SCORE.SYSTEM.VDW>
-4.30975

>  <SCORE.SYSTEM.norm>
-1.92812

>  <SCORE.heavy>
10

>  <SCORE.norm>
-5.38802

$$$$
P109007524
 OpenBabel12072022113D
libRbt.so/2013.1/901 2013/11/27
 18 17  0  0  0  0  0  0  0  0999 V2000
  -29.0804   15.3830  -16.4662 C   0  0  0  0  0  0  0  0  0  0  0  0
  -28.4493   14.0854  -15.9674 C   0  0  0  0  0  0  0  0  0  0  0  0
  -27.2803   13.5193  -16.8277 C   0  0  2  0  0  0  0  0  0  0  0  0
  -27.8227   13.0581  -18.1946 C   0  0  0  0  0  0  0  0  0  0  0  0
  -26.6043   12.3237  -16.1090 C   0  0  0  0  0  0  0  0  0  0  0  0
  -27.2022   11.7640  -15.0760 N   0  3  0  0  0  0  0  0  0  0  0  0
  -26.8414   10.9752  -14.5609 H   0  0  0  0  0  0  0  0  0  0  0  0
  -28.1571   12.0598  -14.8290 H   0  0  0  0  0  0  0  0  0  0  0  0
  -25.4407   11.8433  -16.5116 N   0  0  0  0  0  0  0  0  0  0  0  0
  -26.2444   14.5693  -16.9638 N   0  0  0  0  0  0  0  0  0  0  0  0
  -25.5603   15.1117  -15.9185 C   0  0  0  0  0  0  0  0  0  0  0  0
  -25.1358   14.4745  -14.9647 O   0  0  0  0  0  0  0  0  0  0  0  0
  -25.3989   16.4467  -16.0335 N   0  0  0  0  0  0  0  0  0  0  0  0
  -24.9368   12.2116  -17.3094 H   0  0  0  0  0  0  0  0  0  0  0  0
  -25.0066   11.0569  -16.0443 H   0  0  0  0  0  0  0  0  0  0  0  0
  -25.6641   14.5193  -17.7924 H   0  0  0  0  0  0  0  0  0  0  0  0
  -26.0786   16.9927  -16.5452 H   0  0  0  0  0  0  0  0  0  0  0  0
  -25.0187   16.9117  -15.2152 H   0  0  0  0  0  0  0  0  0  0  0  0
  1  2  1  0  0  0  0
  3  5  1  0  0  0  0
  3 10  1  0  0  0  0
  3  4  1  6  0  0  0
  3  2  1  0  0  0  0
  5  6  2  0  0  0  0
  5  9  1  0  0  0  0
  6  7  1  0  0  0  0
  6  8  1  0  0  0  0
  9 14  1  0  0  0  0
  9 15  1  0  0  0  0
 10 11  1  0  0  0  0
 10 16  1  0  0  0  0
 11 12  2  0  0  0  0
 11 13  1  0  0  0  0
 13 17  1  0  0  0  0
 13 18  1  0  0  0  0
M  CHG  1   6   1
M  END
>  <CHROM.0>
-57.86058962,70.34117454,57.04709863,-43.42779744,-174.78186750,-65.19360959
-61.75224485,-55.42062556,-169.02736085

>  <CHROM.1>
13.50409173,61.76742597,-67.24538946,40.72973937,28.26096438,-26.72424130
13.87616406,-16.26218743,1.29592189,-0.33875869,-0.00750463

>  <Name>
P109007524

>  <RI>
0

>  <Rbt.Current_Directory>
/home/fstefaniak/projects/zuza/docking/adenine/4TZX

>  <Rbt.Executable>
rbdock ($Id: //depot/dev/client3/rdock/2013.1/src/exe/rbdock.cxx#4 $)

>  <Rbt.Library>
libRbt.so (2013.1, Build901 2013/11/27)

>  <Rbt.Parameter_File>
/home/fstefaniak/progs/rDock//data/scripts/dock_solv.prm

>  <Rbt.Receptor>
4tzx.prm

>  <SCORE>
-48.5697

>  <SCORE.INTER>
-31.8847

>  <SCORE.INTER.CONST>
1

>  <SCORE.INTER.POLAR>
-5.50018

>  <SCORE.INTER.ROT>
5

>  <SCORE.INTER.SOLV>
11.6437

>  <SCORE.INTER.VDW>
-13.7371

>  <SCORE.INTER.norm>
-2.89861

>  <SCORE.INTRA>
-0.112137

>  <SCORE.INTRA.DIHEDRAL>
0.0062488

>  <SCORE.INTRA.DIHEDRAL.0>
2.84466

>  <SCORE.INTRA.POLAR>
0.65001

>  <SCORE.INTRA.POLAR.0>
-0.709421

>  <SCORE.INTRA.REPUL>
0

>  <SCORE.INTRA.REPUL.0>
0

>  <SCORE.INTRA.SOLV>
-0.403027

>  <SCORE.INTRA.SOLV.lig_0>
-32.1859

>  <SCORE.INTRA.VDW>
-2.12378

>  <SCORE.INTRA.VDW.0>
3.13324

>  <SCORE.INTRA.norm>
-0.0101943

>  <SCORE.RESTR>
0

>  <SCORE.RESTR.CAVITY>
0

>  <SCORE.RESTR.norm>
0

>  <SCORE.SYSTEM>
-16.5729

>  <SCORE.SYSTEM.CONST>
0

>  <SCORE.SYSTEM.DIHEDRAL>
4.81032

>  <SCORE.SYSTEM.POLAR>
-2.54177

>  <SCORE.SYSTEM.SOLV>
-0.0380155

>  <SCORE.SYSTEM.VDW>
-4.16679

>  <SCORE.SYSTEM.norm>
-1.50662

>  <SCORE.heavy>
11

>  <SCORE.norm>
-4.41543

$$$$
P109007524
 OpenBabel12072022113D
libRbt.so/2013.1/901 2013/11/27
 18 17  0  0  0  0  0  0  0  0999 V2000
  -26.9098   11.6934  -14.4356 C   0  0  0  0  0  0  0  0  0  0  0  0
  -27.3598   11.8525  -15.8857 C   0  0  0  0  0  0  0  0  0  0  0  0
  -27.1686   13.2674  -16.5092 C   0  0  2  0  0  0  0  0  0  0  0  0
  -27.5420   13.2267  -18.0040 C   0  0  0  0  0  0  0  0  0  0  0  0
  -25.6991   13.7365  -16.3554 C   0  0  0  0  0  0  0  0  0  0  0  0
  -25.4482   14.9531  -15.9140 N   0  3  0  0  0  0  0  0  0  0  0  0
  -24.5250   15.3335  -15.7703 H   0  0  0  0  0  0  0  0  0  0  0  0
  -26.2284   15.5348  -15.5775 H   0  0  0  0  0  0  0  0  0  0  0  0
  -24.6852   12.9416  -16.6501 N   0  0  0  0  0  0  0  0  0  0  0  0
  -28.0000   14.2319  -15.7524 N   0  0  0  0  0  0  0  0  0  0  0  0
  -28.4467   15.4172  -16.2529 C   0  0  0  0  0  0  0  0  0  0  0  0
  -29.3778   15.5295  -17.0379 O   0  0  0  0  0  0  0  0  0  0  0  0
  -27.7453   16.4764  -15.7973 N   0  0  0  0  0  0  0  0  0  0  0  0
  -24.8053   11.9894  -16.9743 H   0  0  0  0  0  0  0  0  0  0  0  0
  -23.7269   13.2493  -16.5402 H   0  0  0  0  0  0  0  0  0  0  0  0
  -28.6707   13.8329  -15.1069 H   0  0  0  0  0  0  0  0  0  0  0  0
  -27.1509   16.9950  -16.4296 H   0  0  0  0  0  0  0  0  0  0  0  0
  -28.2193   17.0477  -15.1050 H   0  0  0  0  0  0  0  0  0  0  0  0
  1  2  1  0  0  0  0
  3  5  1  0  0  0  0
  3 10  1  0  0  0  0
  3  4  1  6  0  0  0
  3  2  1  0  0  0  0
  5  6  2  0  0  0  0
  5  9  1  0  0  0  0
  6  7  1  0  0  0  0
  6  8  1  0  0  0  0
  9 14  1  0  0  0  0
  9 15  1  0  0  0  0
 10 11  1  0  0  0  0
 10 16  1  0  0  0  0
 11 12  2  0  0  0  0
 11 13  1  0  0  0  0
 13 17  1  0  0  0  0
 13 18  1  0  0  0  0
M  CHG  1   6   1
M  END
>  <CHROM.0>
-57.19035236,-174.14618585,-62.64807223,-42.54976420,-175.26650286,-61.07594900
-65.72017349,-63.64803295,-168.65608963

>  <CHROM.1>
-132.87275581,-156.42581295,174.62607484,76.49800553,111.28872538,-27.11449394
13.97231064,-16.22691611,0.92728705,0.04100215,3.01619308

>  <Name>
P109007524

>  <RI>
0

>  <Rbt.Current_Directory>
/home/fstefaniak/projects/zuza/docking/adenine/4TZX

>  <Rbt.Executable>
rbdock ($Id: //depot/dev/client3/rdock/2013.1/src/exe/rbdock.cxx#4 $)

>  <Rbt.Library>
libRbt.so (2013.1, Build901 2013/11/27)

>  <Rbt.Parameter_File>
/home/fstefaniak/progs/rDock//data/scripts/dock_solv.prm

>  <Rbt.Receptor>
4tzx.prm

>  <SCORE>
-45.9923

>  <SCORE.INTER>
-21.8379

>  <SCORE.INTER.CONST>
1

>  <SCORE.INTER.POLAR>
-3.52297

>  <SCORE.INTER.ROT>
5

>  <SCORE.INTER.SOLV>
14.0258

>  <SCORE.INTER.VDW>
-14.424

>  <SCORE.INTER.norm>
-1.98526

>  <SCORE.INTRA>
-3.09392

>  <SCORE.INTRA.DIHEDRAL>
0.950094

>  <SCORE.INTRA.DIHEDRAL.0>
2.84466

>  <SCORE.INTRA.POLAR>
-0.485913

>  <SCORE.INTRA.POLAR.0>
-0.709421

>  <SCORE.INTRA.REPUL>
0

>  <SCORE.INTRA.REPUL.0>
0

>  <SCORE.INTRA.SOLV>
1.42143

>  <SCORE.INTRA.SOLV.lig_0>
-32.1859

>  <SCORE.INTRA.VDW>
-2.62758

>  <SCORE.INTRA.VDW.0>
3.13324

>  <SCORE.INTRA.norm>
-0.281266

>  <SCORE.RESTR>
0.0155867

>  <SCORE.RESTR.CAVITY>
0.0155867

>  <SCORE.RESTR.norm>
0.00141697

>  <SCORE.SYSTEM>
-21.076

>  <SCORE.SYSTEM.CONST>
0

>  <SCORE.SYSTEM.DIHEDRAL>
4.59944

>  <SCORE.SYSTEM.POLAR>
-3.07886

>  <SCORE.SYSTEM.SOLV>
-0.0226214

>  <SCORE.SYSTEM.VDW>
-5.31344

>  <SCORE.SYSTEM.norm>
-1.916

>  <SCORE.heavy>
11

>  <SCORE.norm>
-4.18111

$$$$
P109007524
 OpenBabel12072022113D
libRbt.so/2013.1/901 2013/11/27
 18 17  0  0  0  0  0  0  0  0999 V2000
  -25.5169   11.7529  -16.1360 C   0  0  0  0  0  0  0  0  0  0  0  0
  -26.7876   12.5071  -15.7521 C   0  0  0  0  0  0  0  0  0  0  0  0
  -27.3916   13.4318  -16.8508 C   0  0  2  0  0  0  0  0  0  0  0  0
  -28.6142   14.1780  -16.2816 C   0  0  0  0  0  0  0  0  0  0  0  0
  -27.8217   12.6007  -18.0866 C   0  0  0  0  0  0  0  0  0  0  0  0
  -28.2662   11.3708  -17.9198 N   0  3  0  0  0  0  0  0  0  0  0  0
  -28.5798   10.7669  -18.6647 H   0  0  0  0  0  0  0  0  0  0  0  0
  -28.4213   11.0194  -16.9645 H   0  0  0  0  0  0  0  0  0  0  0  0
  -27.7610   13.0982  -19.3095 N   0  0  0  0  0  0  0  0  0  0  0  0
  -26.3367   14.3622  -17.3154 N   0  0  0  0  0  0  0  0  0  0  0  0
  -25.5401   15.0934  -16.4874 C   0  0  0  0  0  0  0  0  0  0  0  0
  -25.5172   14.9778  -15.2701 O   0  0  0  0  0  0  0  0  0  0  0  0
  -24.7686   15.9805  -17.1503 N   0  0  0  0  0  0  0  0  0  0  0  0
  -27.4493   14.0414  -19.5078 H   0  0  0  0  0  0  0  0  0  0  0  0
  -28.0508   12.5546  -20.1131 H   0  0  0  0  0  0  0  0  0  0  0  0
  -25.8380   14.0891  -18.1536 H   0  0  0  0  0  0  0  0  0  0  0  0
  -23.8326   16.1761  -16.8221 H   0  0  0  0  0  0  0  0  0  0  0  0
  -24.8648   15.9719  -18.1607 H   0  0  0  0  0  0  0  0  0  0  0  0
  1  2  1  0  0  0  0
  3  5  1  0  0  0  0
  3 10  1  0  0  0  0
  3  4  1  1  0  0  0
  3  2  1  0  0  0  0
  5  6  2  0  0  0  0
  5  9  1  0  0  0  0
  6  7  1  0  0  0  0
  6  8  1  0  0  0  0
  9 14  1  0  0  0  0
  9 15  1  0  0  0  0
 10 11  1  0  0  0  0
 10 16  1  0  0  0  0
 11 12  2  0  0  0  0
 11 13  1  0  0  0  0
 13 17  1  0  0  0  0
 13 18  1  0  0  0  0
M  CHG  1   6   1
M  END
>  <CHROM.0>
-61.08119920,66.70251466,-62.92316883,175.96694230,60.07427967,-61.64756794
-68.78585771,-61.20013248,-169.89164326

>  <CHROM.1>
32.68743650,-48.82200388,-176.72739868,7.02507145,-144.34378826,-26.73730214
13.57945424,-16.98333697,-2.85014626,-0.87722221,-0.71397006

>  <Name>
P109007524

>  <RI>
0

>  <Rbt.Current_Directory>
/home/fstefaniak/projects/zuza/docking/adenine/4TZX

>  <Rbt.Executable>
rbdock ($Id: //depot/dev/client3/rdock/2013.1/src/exe/rbdock.cxx#4 $)

>  <Rbt.Library>
libRbt.so (2013.1, Build901 2013/11/27)

>  <Rbt.Parameter_File>
/home/fstefaniak/progs/rDock//data/scripts/dock_solv.prm

>  <Rbt.Receptor>
4tzx.prm

>  <SCORE>
-45.6842

>  <SCORE.INTER>
-28.1035

>  <SCORE.INTER.CONST>
1

>  <SCORE.INTER.POLAR>
-4.67141

>  <SCORE.INTER.ROT>
5

>  <SCORE.INTER.SOLV>
18.7942

>  <SCORE.INTER.VDW>
-16.3624

>  <SCORE.INTER.norm>
-2.55487

>  <SCORE.INTRA>
-0.736097

>  <SCORE.INTRA.DIHEDRAL>
0.296922

>  <SCORE.INTRA.DIHEDRAL.0>
2.84466

>  <SCORE.INTRA.POLAR>
0.70851

>  <SCORE.INTRA.POLAR.0>
-0.709421

>  <SCORE.INTRA.REPUL>
0

>  <SCORE.INTRA.REPUL.0>
0

>  <SCORE.INTRA.SOLV>
-0.855646

>  <SCORE.INTRA.SOLV.lig_0>
-32.1859

>  <SCORE.INTRA.VDW>
-2.86567

>  <SCORE.INTRA.VDW.0>
3.13324

>  <SCORE.INTRA.norm>
-0.0669179

>  <SCORE.RESTR>
0.0609846

>  <SCORE.RESTR.CAVITY>
0.0609846

>  <SCORE.RESTR.norm>
0.00554405

>  <SCORE.SYSTEM>
-16.9056

>  <SCORE.SYSTEM.CONST>
0

>  <SCORE.SYSTEM.DIHEDRAL>
3.27657

>  <SCORE.SYSTEM.POLAR>
-2.43593

>  <SCORE.SYSTEM.SOLV>
-0.174563

>  <SCORE.SYSTEM.VDW>
-4.18463

>  <SCORE.SYSTEM.norm>
-1.53687

>  <SCORE.heavy>
11

>  <SCORE.norm>
-4.15311

$$$$
P109008946
 OpenBabel12072022113D
libRbt.so/2013.1/901 2013/11/27
 15 15  0  0  0  0  0  0  0  0999 V2000
  -28.2917   16.3517  -15.8801 C   0  0  0  0  0  0  0  0  0  0  0  0
  -29.3586   15.8782  -16.8606 C   0  0  0  0  0  0  0  0  0  0  0  0
  -30.4156   16.9864  -16.8158 C   0  0  1  0  0  0  0  0  0  0  0  0
  -30.2942   17.5294  -15.4532 N   0  0  0  0  0  0  0  0  0  0  0  0
  -29.1070   17.0170  -14.7849 C   0  0  0  0  0  0  0  0  0  0  0  0
  -31.3543   18.1312  -14.8355 C   0  0  0  0  0  0  0  0  0  0  0  0
  -32.4256   18.3711  -15.3842 O   0  0  0  0  0  0  0  0  0  0  0  0
  -31.1703   18.4649  -13.5361 N   0  0  0  0  0  0  0  0  0  0  0  0
  -30.3032   18.1394  -17.8411 C   0  0  0  0  0  0  0  0  0  0  0  0
  -30.8624   19.7004  -17.6448 S   0  0  0  0  0  0  0  0  0  0  0  0
  -29.6771   17.8153  -19.0158 N   0  0  0  0  0  0  0  0  0  0  0  0
  -31.3688   17.7579  -12.8452 H   0  0  0  0  0  0  0  0  0  0  0  0
  -30.3128   18.9778  -13.3744 H   0  0  0  0  0  0  0  0  0  0  0  0
  -29.4710   16.8377  -19.2346 H   0  0  0  0  0  0  0  0  0  0  0  0
  -29.6258   18.4893  -19.7683 H   0  0  0  0  0  0  0  0  0  0  0  0
  1  2  1  0  0  0  0
  1  5  1  0  0  0  0
  2  3  1  0  0  0  0
  3  4  1  0  0  0  0
  3  9  1  6  0  0  0
  4  5  1  0  0  0  0
  4  6  1  0  0  0  0
  6  7  2  0  0  0  0
  6  8  1  0  0  0  0
  8 12  1  0  0  0  0
  8 13  1  0  0  0  0
  9 10  2  0  0  0  0
  9 11  1  0  0  0  0
 11 14  1  0  0  0  0
 11 15  1  0  0  0  0
M  END
>  <CHROM.0>
-60.87481688,54.11329913,-66.73991163,-43.01838022,-175.12179171,-61.55091041
-66.11467843,-62.44370043,-169.08731966

>  <CHROM.1>
-152.82409467,-86.67555069,-30.36405334,17.89164640,-16.32485768,-1.82200691
0.81150127,-1.26073300

>  <Name>
P109008946

>  <RI>
0

>  <Rbt.Current_Directory>
/home/fstefaniak/projects/zuza/docking/adenine/4TZX

>  <Rbt.Executable>
rbdock ($Id: //depot/dev/client3/rdock/2013.1/src/exe/rbdock.cxx#4 $)

>  <Rbt.Library>
libRbt.so (2013.1, Build901 2013/11/27)

>  <Rbt.Parameter_File>
/home/fstefaniak/progs/rDock//data/scripts/dock_solv.prm

>  <Rbt.Receptor>
4tzx.prm

>  <SCORE>
-48.9511

>  <SCORE.INTER>
-29.3328

>  <SCORE.INTER.CONST>
1

>  <SCORE.INTER.POLAR>
-3.07831

>  <SCORE.INTER.ROT>
2

>  <SCORE.INTER.SOLV>
15.4217

>  <SCORE.INTER.VDW>
-19.3681

>  <SCORE.INTER.norm>
-2.66662

>  <SCORE.INTRA>
0.914926

>  <SCORE.INTRA.DIHEDRAL>
0.000618085

>  <SCORE.INTRA.DIHEDRAL.0>
1.52126

>  <SCORE.INTRA.POLAR>
0.294357

>  <SCORE.INTRA.POLAR.0>
-0.294357

>  <SCORE.INTRA.REPUL>
0

>  <SCORE.INTRA.REPUL.0>
0

>  <SCORE.INTRA.SOLV>
-0.392984

>  <SCORE.INTRA.SOLV.lig_0>
-15.8133

>  <SCORE.INTRA.VDW>
0.110294

>  <SCORE.INTRA.VDW.0>
-1.01167

>  <SCORE.INTRA.norm>
0.083175

>  <SCORE.RESTR>
0

>  <SCORE.RESTR.CAVITY>
0

>  <SCORE.RESTR.norm>
0

>  <SCORE.SYSTEM>
-20.5332

>  <SCORE.SYSTEM.CONST>
0

>  <SCORE.SYSTEM.DIHEDRAL>
4.63347

>  <SCORE.SYSTEM.POLAR>
-3.0569

>  <SCORE.SYSTEM.SOLV>
0.0798158

>  <SCORE.SYSTEM.VDW>
-5.07026

>  <SCORE.SYSTEM.norm>
-1.86666

>  <SCORE.heavy>
11

>  <SCORE.norm>
-4.4501

$$$$
P109008946
 OpenBabel12072022113D
libRbt.so/2013.1/901 2013/11/27
 15 15  0  0  0  0  0  0  0  0999 V2000
  -28.2845   16.3688  -15.8658 C   0  0  0  0  0  0  0  0  0  0  0  0
  -29.3517   15.8914  -16.8441 C   0  0  0  0  0  0  0  0  0  0  0  0
  -30.4135   16.9949  -16.7955 C   0  0  1  0  0  0  0  0  0  0  0  0
  -30.2911   17.5370  -15.4326 N   0  0  0  0  0  0  0  0  0  0  0  0
  -29.0999   17.0293  -14.7679 C   0  0  0  0  0  0  0  0  0  0  0  0
  -31.3523   18.1334  -14.8117 C   0  0  0  0  0  0  0  0  0  0  0  0
  -32.4260   18.3691  -15.3574 O   0  0  0  0  0  0  0  0  0  0  0  0
  -31.1665   18.4667  -13.5124 N   0  0  0  0  0  0  0  0  0  0  0  0
  -30.3089   18.1494  -17.8199 C   0  0  0  0  0  0  0  0  0  0  0  0
  -30.8708   19.7088  -17.6190 S   0  0  0  0  0  0  0  0  0  0  0  0
  -29.6878   17.8282  -18.9981 N   0  0  0  0  0  0  0  0  0  0  0  0
  -31.3502   17.7550  -12.8223 H   0  0  0  0  0  0  0  0  0  0  0  0
  -30.3162   18.9925  -13.3540 H   0  0  0  0  0  0  0  0  0  0  0  0
  -29.4805   16.8514  -19.2191 H   0  0  0  0  0  0  0  0  0  0  0  0
  -29.6419   18.5032  -19.7500 H   0  0  0  0  0  0  0  0  0  0  0  0
  1  2  1  0  0  0  0
  1  5  1  0  0  0  0
  2  3  1  0  0  0  0
  3  4  1  0  0  0  0
  3  9  1  6  0  0  0
  4  5  1  0  0  0  0
  4  6  1  0  0  0  0
  6  7  2  0  0  0  0
  6  8  1  0  0  0  0
  8 12  1  0  0  0  0
  8 13  1  0  0  0  0
  9 10  2  0  0  0  0
  9 11  1  0  0  0  0
 11 14  1  0  0  0  0
 11 15  1  0  0  0  0
M  END
>  <CHROM.0>
-55.59940813,51.89502963,-63.60071604,-42.45506741,-172.59584133,-58.33267769
-67.11524393,-59.22976243,-168.01920421

>  <CHROM.1>
-152.63968389,-86.01381720,-30.36441284,17.89999267,-16.30362485,-1.81721240
0.80873126,-1.26355488

>  <Name>
P109008946

>  <RI>
0

>  <Rbt.Current_Directory>
/home/fstefaniak/projects/zuza/docking/adenine/4TZX

>  <Rbt.Executable>
rbdock ($Id: //depot/dev/client3/rdock/2013.1/src/exe/rbdock.cxx#4 $)

>  <Rbt.Library>
libRbt.so (2013.1, Build901 2013/11/27)

>  <Rbt.Parameter_File>
/home/fstefaniak/progs/rDock//data/scripts/dock_solv.prm

>  <Rbt.Receptor>
4tzx.prm

>  <SCORE>
-48.7445

>  <SCORE.INTER>
-29.319

>  <SCORE.INTER.CONST>
1

>  <SCORE.INTER.POLAR>
-3.1096

>  <SCORE.INTER.ROT>
2

>  <SCORE.INTER.SOLV>
15.413

>  <SCORE.INTER.VDW>
-19.2517

>  <SCORE.INTER.norm>
-2.66536

>  <SCORE.INTRA>
0.900408

>  <SCORE.INTRA.DIHEDRAL>
0.000586876

>  <SCORE.INTRA.DIHEDRAL.0>
1.52126

>  <SCORE.INTRA.POLAR>
0.294357

>  <SCORE.INTRA.POLAR.0>
-0.294357

>  <SCORE.INTRA.REPUL>
0

>  <SCORE.INTRA.REPUL.0>
0

>  <SCORE.INTRA.SOLV>
-0.393776

>  <SCORE.INTRA.SOLV.lig_0>
-15.8133

>  <SCORE.INTRA.VDW>
0.0961872

>  <SCORE.INTRA.VDW.0>
-1.01167

>  <SCORE.INTRA.norm>
0.0818553

>  <SCORE.RESTR>
0

>  <SCORE.RESTR.CAVITY>
0

>  <SCORE.RESTR.norm>
0

>  <SCORE.SYSTEM>
-20.3259

>  <SCORE.SYSTEM.CONST>
0

>  <SCORE.SYSTEM.DIHEDRAL>
5.07858

>  <SCORE.SYSTEM.POLAR>
-3.12443

>  <SCORE.SYSTEM.SOLV>
0.109448

>  <SCORE.SYSTEM.VDW>
-4.86519

>  <SCORE.SYSTEM.norm>
-1.84781

>  <SCORE.heavy>
11

>  <SCORE.norm>
-4.43132

$$$$
P109008946
 OpenBabel12072022113D
libRbt.so/2013.1/901 2013/11/27
 15 15  0  0  0  0  0  0  0  0999 V2000
  -28.3241   16.3732  -15.8271 C   0  0  0  0  0  0  0  0  0  0  0  0
  -29.3668   15.9114  -16.8387 C   0  0  0  0  0  0  0  0  0  0  0  0
  -30.4321   17.0117  -16.7954 C   0  0  1  0  0  0  0  0  0  0  0  0
  -30.3431   17.5295  -15.4206 N   0  0  0  0  0  0  0  0  0  0  0  0
  -29.1667   17.0123  -14.7371 C   0  0  0  0  0  0  0  0  0  0  0  0
  -31.4201   18.1126  -14.8142 C   0  0  0  0  0  0  0  0  0  0  0  0
  -32.4812   18.3559  -15.3809 O   0  0  0  0  0  0  0  0  0  0  0  0
  -31.2657   18.4229  -13.5053 N   0  0  0  0  0  0  0  0  0  0  0  0
  -30.3062   18.1845  -17.7963 C   0  0  0  0  0  0  0  0  0  0  0  0
  -30.8575   19.7445  -17.5719 S   0  0  0  0  0  0  0  0  0  0  0  0
  -29.6742   17.8806  -18.9733 N   0  0  0  0  0  0  0  0  0  0  0  0
  -30.4739   18.9957  -13.2567 H   0  0  0  0  0  0  0  0  0  0  0  0
  -32.1318   18.6893  -13.0543 H   0  0  0  0  0  0  0  0  0  0  0  0
  -29.4724   16.9065  -19.2106 H   0  0  0  0  0  0  0  0  0  0  0  0
  -29.6141   18.5694  -19.7115 H   0  0  0  0  0  0  0  0  0  0  0  0
  1  2  1  0  0  0  0
  1  5  1  0  0  0  0
  2  3  1  0  0  0  0
  3  4  1  0  0  0  0
  3  9  1  6  0  0  0
  4  5  1  0  0  0  0
  4  6  1  0  0  0  0
  6  7  2  0  0  0  0
  6  8  1  0  0  0  0
  8 12  1  0  0  0  0
  8 13  1  0  0  0  0
  9 10  2  0  0  0  0
  9 11  1  0  0  0  0
 11 14  1  0  0  0  0
 11 15  1  0  0  0  0
M  END
>  <CHROM.0>
-59.68129708,52.22825042,-66.10953679,-43.16609043,-171.18957217,-62.70451452
-65.24162488,-178.29773122,-168.59562477

>  <CHROM.1>
-151.71707942,54.25801224,-30.39915647,17.91449879,-16.28650402,-1.90055299
0.80331978,-1.22359298

>  <Name>
P109008946

>  <RI>
0

>  <Rbt.Current_Directory>
/home/fstefaniak/projects/zuza/docking/adenine/4TZX

>  <Rbt.Executable>
rbdock ($Id: //depot/dev/client3/rdock/2013.1/src/exe/rbdock.cxx#4 $)

>  <Rbt.Library>
libRbt.so (2013.1, Build901 2013/11/27)

>  <Rbt.Parameter_File>
/home/fstefaniak/progs/rDock//data/scripts/dock_solv.prm

>  <Rbt.Receptor>
4tzx.prm

>  <SCORE>
-48.7409

>  <SCORE.INTER>
-29.1856

>  <SCORE.INTER.CONST>
1

>  <SCORE.INTER.POLAR>
-3.09925

>  <SCORE.INTER.ROT>
2

>  <SCORE.INTER.SOLV>
15.5424

>  <SCORE.INTER.VDW>
-19.2403

>  <SCORE.INTER.norm>
-2.65323

>  <SCORE.INTRA>
0.868718

>  <SCORE.INTRA.DIHEDRAL>
-0.000860895

>  <SCORE.INTRA.DIHEDRAL.0>
1.52126

>  <SCORE.INTRA.POLAR>
0.294357

>  <SCORE.INTRA.POLAR.0>
-0.294357

>  <SCORE.INTRA.REPUL>
0

>  <SCORE.INTRA.REPUL.0>
0

>  <SCORE.INTRA.SOLV>
-0.406139

>  <SCORE.INTRA.SOLV.lig_0>
-15.8133

>  <SCORE.INTRA.VDW>
0.0714029

>  <SCORE.INTRA.VDW.0>
-1.01167

>  <SCORE.INTRA.norm>
0.0789744

>  <SCORE.RESTR>
0

>  <SCORE.RESTR.CAVITY>
0

>  <SCORE.RESTR.norm>
0

>  <SCORE.SYSTEM>
-20.424

>  <SCORE.SYSTEM.CONST>
0

>  <SCORE.SYSTEM.DIHEDRAL>
4.9442

>  <SCORE.SYSTEM.POLAR>
-3.07355

>  <SCORE.SYSTEM.SOLV>
-0.0405361

>  <SCORE.SYSTEM.VDW>
-5.00539

>  <SCORE.SYSTEM.norm>
-1.85673

>  <SCORE.heavy>
11

>  <SCORE.norm>
-4.43099

$$$$
P109011612
 OpenBabel12072022113D
libRbt.so/2013.1/901 2013/11/27
 15 16  0  0  0  0  0  0  0  0999 V2000
  -30.5722   18.7055  -19.2460 C   0  0  0  0  0  0  0  0  0  0  0  0
  -31.0260   19.6219  -18.1448 C   0  0  0  0  0  0  0  0  0  0  0  0
  -30.0069   18.5442  -17.8533 C   0  0  0  0  0  0  0  0  0  0  0  0
  -30.3686   17.3343  -17.0279 C   0  0  2  0  0  0  0  0  0  0  0  0
  -31.0898   17.8876  -15.8598 C   0  0  0  0  0  0  0  0  0  0  0  0
  -31.6233   18.3502  -14.9364 N   0  0  0  0  0  0  0  0  0  0  0  0
  -29.1438   16.6533  -16.6476 N   0  0  0  0  0  0  0  0  0  0  0  0
  -29.1755   15.7839  -15.5864 C   0  0  0  0  0  0  0  0  0  0  0  0
  -29.4955   16.1134  -14.4527 O   0  0  0  0  0  0  0  0  0  0  0  0
  -28.8071   14.5138  -15.9631 N   0  0  0  0  0  0  0  0  0  0  0  0
  -27.6830   14.2786  -16.8152 C   0  0  0  0  0  0  0  0  0  0  0  0
  -26.7530   13.1259  -16.5510 C   0  0  0  0  0  0  0  0  0  0  0  0
  -27.6662   13.0939  -17.7408 C   0  0  0  0  0  0  0  0  0  0  0  0
  -28.2917   17.1875  -16.7285 H   0  0  0  0  0  0  0  0  0  0  0  0
  -29.0789   13.7673  -15.3388 H   0  0  0  0  0  0  0  0  0  0  0  0
  1  2  1  0  0  0  0
  1  3  1  0  0  0  0
  2  3  1  0  0  0  0
  4  5  1  1  0  0  0
  4  7  1  0  0  0  0
  4  3  1  0  0  0  0
  5  6  3  0  0  0  0
  7  8  1  0  0  0  0
  7 14  1  0  0  0  0
  8  9  2  0  0  0  0
  8 10  1  0  0  0  0
 10 11  1  0  0  0  0
 10 15  1  0  0  0  0
 11 12  1  0  0  0  0
 11 13  1  0  0  0  0
 12 13  1  0  0  0  0
M  END
>  <CHROM.0>
-59.45304193,170.37200134,-64.46475567,-41.09179487,-59.90685558,-62.90347767
-66.78332380,-59.06242059,-168.90056870

>  <CHROM.1>
160.55972987,-116.98142195,-59.66969846,44.14287116,139.62768146,-29.47193941
16.43436541,-16.65953469,-2.70201284,-0.93518680,1.95697620

>  <Name>
P109011612

>  <RI>
0

>  <Rbt.Current_Directory>
/home/fstefaniak/projects/zuza/docking/adenine/4TZX

>  <Rbt.Executable>
rbdock ($Id: //depot/dev/client3/rdock/2013.1/src/exe/rbdock.cxx#4 $)

>  <Rbt.Library>
libRbt.so (2013.1, Build901 2013/11/27)

>  <Rbt.Parameter_File>
/home/fstefaniak/progs/rDock//data/scripts/dock_solv.prm

>  <Rbt.Receptor>
4tzx.prm

>  <SCORE>
-51.7291

>  <SCORE.INTER>
-32.393

>  <SCORE.INTER.CONST>
1

>  <SCORE.INTER.POLAR>
-3.62257

>  <SCORE.INTER.ROT>
5

>  <SCORE.INTER.SOLV>
13.608

>  <SCORE.INTER.VDW>
-20.9895

>  <SCORE.INTER.norm>
-2.49177

>  <SCORE.INTRA>
1.19298

>  <SCORE.INTRA.DIHEDRAL>
-0.477624

>  <SCORE.INTRA.DIHEDRAL.0>
5.39308

>  <SCORE.INTRA.POLAR>
0

>  <SCORE.INTRA.POLAR.0>
0

>  <SCORE.INTRA.REPUL>
0

>  <SCORE.INTRA.REPUL.0>
0

>  <SCORE.INTRA.SOLV>
0.467504

>  <SCORE.INTRA.SOLV.lig_0>
-14.8387

>  <SCORE.INTRA.VDW>
1.19804

>  <SCORE.INTRA.VDW.0>
-1.3347

>  <SCORE.INTRA.norm>
0.0917679

>  <SCORE.RESTR>
0

>  <SCORE.RESTR.CAVITY>
0

>  <SCORE.RESTR.norm>
0

>  <SCORE.SYSTEM>
-20.5291

>  <SCORE.SYSTEM.CONST>
0

>  <SCORE.SYSTEM.DIHEDRAL>
5.02748

>  <SCORE.SYSTEM.POLAR>
-3.08034

>  <SCORE.SYSTEM.SOLV>
0.176256

>  <SCORE.SYSTEM.VDW>
-5.15284

>  <SCORE.SYSTEM.norm>
-1.57916

>  <SCORE.heavy>
13

>  <SCORE.norm>
-3.97916

$$$$
P109011612
 OpenBabel12072022113D
libRbt.so/2013.1/901 2013/11/27
 15 16  0  0  0  0  0  0  0  0999 V2000
  -30.4100   18.7120  -18.7208 C   0  0  0  0  0  0  0  0  0  0  0  0
  -31.3334   19.2823  -17.6814 C   0  0  0  0  0  0  0  0  0  0  0  0
  -30.1749   18.4079  -17.2588 C   0  0  0  0  0  0  0  0  0  0  0  0
  -30.4048   17.0129  -16.7322 C   0  0  2  0  0  0  0  0  0  0  0  0
  -30.6130   17.1978  -15.2784 C   0  0  0  0  0  0  0  0  0  0  0  0
  -30.7398   17.3668  -14.1354 N   0  0  0  0  0  0  0  0  0  0  0  0
  -29.2296   16.2113  -17.0232 N   0  0  0  0  0  0  0  0  0  0  0  0
  -28.3960   15.8646  -15.9898 C   0  0  0  0  0  0  0  0  0  0  0  0
  -27.7393   16.6750  -15.3509 O   0  0  0  0  0  0  0  0  0  0  0  0
  -28.3997   14.5070  -15.7719 N   0  0  0  0  0  0  0  0  0  0  0  0
  -27.2604   13.6949  -16.0677 C   0  0  0  0  0  0  0  0  0  0  0  0
  -27.1221   13.0348  -17.4125 C   0  0  0  0  0  0  0  0  0  0  0  0
  -26.2187   14.1732  -17.0406 C   0  0  0  0  0  0  0  0  0  0  0  0
  -28.7604   16.4059  -17.8949 H   0  0  0  0  0  0  0  0  0  0  0  0
  -29.0357   14.1712  -15.0621 H   0  0  0  0  0  0  0  0  0  0  0  0
  1  2  1  0  0  0  0
  1  3  1  0  0  0  0
  2  3  1  0  0  0  0
  4  5  1  1  0  0  0
  4  7  1  0  0  0  0
  4  3  1  0  0  0  0
  5  6  3  0  0  0  0
  7  8  1  0  0  0  0
  7 14  1  0  0  0  0
  8  9  2  0  0  0  0
  8 10  1  0  0  0  0
 10 11  1  0  0  0  0
 10 15  1  0  0  0  0
 11 12  1  0  0  0  0
 11 13  1  0  0  0  0
 12 13  1  0  0  0  0
M  END
>  <CHROM.0>
-60.16607998,-56.92623456,-64.35089392,-44.19367213,-59.91463848,-60.60285624
-66.03154486,-53.17199814,-168.74706456

>  <CHROM.1>
107.60693695,-158.13647481,-65.69627270,110.61396561,-91.91877348,-29.05027940
16.30525865,-16.50089489,-2.84427590,-0.85697679,1.84823331

>  <Name>
P109011612

>  <RI>
0

>  <Rbt.Current_Directory>
/home/fstefaniak/projects/zuza/docking/adenine/4TZX

>  <Rbt.Executable>
rbdock ($Id: //depot/dev/client3/rdock/2013.1/src/exe/rbdock.cxx#4 $)

>  <Rbt.Library>
libRbt.so (2013.1, Build901 2013/11/27)

>  <Rbt.Parameter_File>
/home/fstefaniak/progs/rDock//data/scripts/dock_solv.prm

>  <Rbt.Receptor>
4tzx.prm

>  <SCORE>
-51.3941

>  <SCORE.INTER>
-31.8737

>  <SCORE.INTER.CONST>
1

>  <SCORE.INTER.POLAR>
-3.36515

>  <SCORE.INTER.ROT>
5

>  <SCORE.INTER.SOLV>
12.3623

>  <SCORE.INTER.VDW>
-21.0861

>  <SCORE.INTER.norm>
-2.45183

>  <SCORE.INTRA>
1.43727

>  <SCORE.INTRA.DIHEDRAL>
0.927752

>  <SCORE.INTRA.DIHEDRAL.0>
5.39308

>  <SCORE.INTRA.POLAR>
0

>  <SCORE.INTRA.POLAR.0>
0

>  <SCORE.INTRA.REPUL>
0

>  <SCORE.INTRA.REPUL.0>
0

>  <SCORE.INTRA.SOLV>
1.06947

>  <SCORE.INTRA.SOLV.lig_0>
-14.8387

>  <SCORE.INTRA.VDW>
0.438654

>  <SCORE.INTRA.VDW.0>
-1.3347

>  <SCORE.INTRA.norm>
0.110559

>  <SCORE.RESTR>
0

>  <SCORE.RESTR.CAVITY>
0

>  <SCORE.RESTR.norm>
0

>  <SCORE.SYSTEM>
-20.9577

>  <SCORE.SYSTEM.CONST>
0

>  <SCORE.SYSTEM.DIHEDRAL>
4.32003

>  <SCORE.SYSTEM.POLAR>
-3.04035

>  <SCORE.SYSTEM.SOLV>
0.198637

>  <SCORE.SYSTEM.VDW>
-5.34349

>  <SCORE.SYSTEM.norm>
-1.61213

>  <SCORE.heavy>
13

>  <SCORE.norm>
-3.9534

$$$$
P109011612
 OpenBabel12072022113D
libRbt.so/2013.1/901 2013/11/27
 15 16  0  0  0  0  0  0  0  0999 V2000
  -30.3520   17.8990  -17.8166 C   0  0  0  0  0  0  0  0  0  0  0  0
  -31.2280   19.0410  -17.3845 C   0  0  0  0  0  0  0  0  0  0  0  0
  -30.5024   18.2161  -16.3462 C   0  0  0  0  0  0  0  0  0  0  0  0
  -31.2519   17.2681  -15.4430 C   0  0  2  0  0  0  0  0  0  0  0  0
  -31.3761   18.0003  -14.1626 C   0  0  0  0  0  0  0  0  0  0  0  0
  -31.4307   18.5831  -13.1584 N   0  0  0  0  0  0  0  0  0  0  0  0
  -30.4744   16.0492  -15.3079 N   0  0  0  0  0  0  0  0  0  0  0  0
  -29.1054   16.1403  -15.2828 C   0  0  0  0  0  0  0  0  0  0  0  0
  -28.4870   16.7912  -14.4520 O   0  0  0  0  0  0  0  0  0  0  0  0
  -28.5323   15.4124  -16.2988 N   0  0  0  0  0  0  0  0  0  0  0  0
  -28.5306   13.9823  -16.2908 C   0  0  0  0  0  0  0  0  0  0  0  0
  -27.8955   13.2135  -17.4173 C   0  0  0  0  0  0  0  0  0  0  0  0
  -27.2517   13.2255  -16.0624 C   0  0  0  0  0  0  0  0  0  0  0  0
  -30.8332   15.2351  -15.7837 H   0  0  0  0  0  0  0  0  0  0  0  0
  -28.4748   15.8702  -17.1977 H   0  0  0  0  0  0  0  0  0  0  0  0
  1  2  1  0  0  0  0
  1  3  1  0  0  0  0
  2  3  1  0  0  0  0
  4  5  1  1  0  0  0
  4  7  1  0  0  0  0
  4  3  1  0  0  0  0
  5  6  3  0  0  0  0
  7  8  1  0  0  0  0
  7 14  1  0  0  0  0
  8  9  2  0  0  0  0
  8 10  1  0  0  0  0
 10 11  1  0  0  0  0
 10 15  1  0  0  0  0
 11 12  1  0  0  0  0
 11 13  1  0  0  0  0
 12 13  1  0  0  0  0
M  END
>  <CHROM.0>
-59.83180430,-63.04441162,60.09343627,-42.57941321,-57.27792757,58.13442636
55.03855179,-58.71261496,-168.72354732

>  <CHROM.1>
35.33596900,-171.28333396,58.88836747,-70.95999432,179.98697651,-29.69203402
16.42677914,-15.81545694,2.97578881,-0.95938188,1.62339161

>  <Name>
P109011612

>  <RI>
0

>  <Rbt.Current_Directory>
/home/fstefaniak/projects/zuza/docking/adenine/4TZX

>  <Rbt.Executable>
rbdock ($Id: //depot/dev/client3/rdock/2013.1/src/exe/rbdock.cxx#4 $)

>  <Rbt.Library>
libRbt.so (2013.1, Build901 2013/11/27)

>  <Rbt.Parameter_File>
/home/fstefaniak/progs/rDock//data/scripts/dock_solv.prm

>  <Rbt.Receptor>
4tzx.prm

>  <SCORE>
-51.3569

>  <SCORE.INTER>
-34.559

>  <SCORE.INTER.CONST>
1

>  <SCORE.INTER.POLAR>
-3.35065

>  <SCORE.INTER.ROT>
5

>  <SCORE.INTER.SOLV>
13.6628

>  <SCORE.INTER.VDW>
-23.3581

>  <SCORE.INTER.norm>
-2.65838

>  <SCORE.INTRA>
1.29027

>  <SCORE.INTRA.DIHEDRAL>
1.47967

>  <SCORE.INTRA.DIHEDRAL.0>
5.39308

>  <SCORE.INTRA.POLAR>
0

>  <SCORE.INTRA.POLAR.0>
0

>  <SCORE.INTRA.REPUL>
0

>  <SCORE.INTRA.REPUL.0>
0

>  <SCORE.INTRA.SOLV>
0.980868

>  <SCORE.INTRA.SOLV.lig_0>
-14.8387

>  <SCORE.INTRA.VDW>
0.0599986

>  <SCORE.INTRA.VDW.0>
-1.3347

>  <SCORE.INTRA.norm>
0.0992513

>  <SCORE.RESTR>
0

>  <SCORE.RESTR.CAVITY>
0

>  <SCORE.RESTR.norm>
0

>  <SCORE.SYSTEM>
-18.0882

>  <SCORE.SYSTEM.CONST>
0

>  <SCORE.SYSTEM.DIHEDRAL>
4.25507

>  <SCORE.SYSTEM.POLAR>
-3.03703

>  <SCORE.SYSTEM.SOLV>
-0.0524627

>  <SCORE.SYSTEM.VDW>
-3.33627

>  <SCORE.SYSTEM.norm>
-1.3914

>  <SCORE.heavy>
13

>  <SCORE.norm>
-3.95053

$$$$
P109011981
 OpenBabel12072022113D
libRbt.so/2013.1/901 2013/11/27
 18 18  0  0  0  0  0  0  0  0999 V2000
  -29.3888   16.1600  -17.0027 C   0  0  0  0  0  0  0  0  0  0  0  0
  -29.1993   15.6096  -15.6161 C   0  0  0  0  0  0  0  0  0  0  0  0
  -30.4410   16.4004  -15.9478 C   0  0  0  0  0  0  0  0  0  0  0  0
  -30.6476   17.7876  -15.3864 C   0  0  2  0  0  0  0  0  0  0  0  0
  -30.9153   17.8561  -13.8784 C   0  0  0  0  0  0  0  0  0  0  0  0
  -32.1536   17.9310  -13.4254 N   0  3  0  0  0  0  0  0  0  0  0  0
  -32.3578   17.9761  -12.4356 H   0  0  0  0  0  0  0  0  0  0  0  0
  -32.9465   17.9466  -14.0578 H   0  0  0  0  0  0  0  0  0  0  0  0
  -29.8943   17.8217  -13.0452 N   0  0  0  0  0  0  0  0  0  0  0  0
  -31.7996   18.3772  -16.0660 N   0  0  0  0  0  0  0  0  0  0  0  0
  -31.6319   19.0458  -17.2421 C   0  0  0  0  0  0  0  0  0  0  0  0
  -30.6979   19.8049  -17.4646 O   0  0  0  0  0  0  0  0  0  0  0  0
  -32.6094   18.7971  -18.1369 N   0  0  0  0  0  0  0  0  0  0  0  0
  -28.9403   17.8389  -13.4339 H   0  0  0  0  0  0  0  0  0  0  0  0
  -29.9738   17.8674  -12.0405 H   0  0  0  0  0  0  0  0  0  0  0  0
  -32.6407   17.8119  -16.0752 H   0  0  0  0  0  0  0  0  0  0  0  0
  -32.8619   19.5024  -18.8160 H   0  0  0  0  0  0  0  0  0  0  0  0
  -32.6618   17.8431  -18.4793 H   0  0  0  0  0  0  0  0  0  0  0  0
  1  2  1  0  0  0  0
  1  3  1  0  0  0  0
  2  3  1  0  0  0  0
  4  5  1  1  0  0  0
  4 10  1  0  0  0  0
  4  3  1  0  0  0  0
  5  6  2  0  0  0  0
  5  9  1  0  0  0  0
  6  7  1  0  0  0  0
  6  8  1  0  0  0  0
  9 14  1  0  0  0  0
  9 15  1  0  0  0  0
 10 11  1  0  0  0  0
 10 16  1  0  0  0  0
 11 12  2  0  0  0  0
 11 13  1  0  0  0  0
 13 17  1  0  0  0  0
 13 18  1  0  0  0  0
M  CHG  1   6   1
M  END
>  <CHROM.0>
-61.35035535,54.04872188,-62.81287866,-43.04900146,-59.85877157,-60.46438537
-66.26978222,-179.45836316,-168.75789685

>  <CHROM.1>
-96.69887508,-87.18675713,-140.26440431,-40.73336603,150.65825713,-30.88456105
17.81270570,-15.74283291,-1.06238871,0.84772254,-1.51174249

>  <Name>
P109011981

>  <RI>
0

>  <Rbt.Current_Directory>
/home/fstefaniak/projects/zuza/docking/adenine/4TZX

>  <Rbt.Executable>
rbdock ($Id: //depot/dev/client3/rdock/2013.1/src/exe/rbdock.cxx#4 $)

>  <Rbt.Library>
libRbt.so (2013.1, Build901 2013/11/27)

>  <Rbt.Parameter_File>
/home/fstefaniak/progs/rDock//data/scripts/dock_solv.prm

>  <Rbt.Receptor>
4tzx.prm

>  <SCORE>
-59.4641

>  <SCORE.INTER>
-38.7052

>  <SCORE.INTER.CONST>
1

>  <SCORE.INTER.POLAR>
-5.98018

>  <SCORE.INTER.ROT>
5

>  <SCORE.INTER.SOLV>
24.5589

>  <SCORE.INTER.VDW>
-20.9892

>  <SCORE.INTER.norm>
-3.51865

>  <SCORE.INTRA>
-0.453896

>  <SCORE.INTRA.DIHEDRAL>
-0.684105

>  <SCORE.INTRA.DIHEDRAL.0>
5.56874

>  <SCORE.INTRA.POLAR>
0.704842

>  <SCORE.INTRA.POLAR.0>
-0.705809

>  <SCORE.INTRA.REPUL>
0

>  <SCORE.INTRA.REPUL.0>
0

>  <SCORE.INTRA.SOLV>
-1.69352

>  <SCORE.INTRA.SOLV.lig_0>
-33.8793

>  <SCORE.INTRA.VDW>
-1.66155

>  <SCORE.INTRA.VDW.0>
-0.297649

>  <SCORE.INTRA.norm>
-0.0412632

>  <SCORE.RESTR>
0

>  <SCORE.RESTR.CAVITY>
0

>  <SCORE.RESTR.norm>
0

>  <SCORE.SYSTEM>
-20.305

>  <SCORE.SYSTEM.CONST>
0

>  <SCORE.SYSTEM.DIHEDRAL>
4.36509

>  <SCORE.SYSTEM.POLAR>
-3.06208

>  <SCORE.SYSTEM.SOLV>
0.142408

>  <SCORE.SYSTEM.VDW>
-4.83223

>  <SCORE.SYSTEM.norm>
-1.84591

>  <SCORE.heavy>
11

>  <SCORE.norm>
-5.40582

$$$$
P109011981
 OpenBabel12072022113D
libRbt.so/2013.1/901 2013/11/27
 18 18  0  0  0  0  0  0  0  0999 V2000
  -29.5579   16.2658  -17.1702 C   0  0  0  0  0  0  0  0  0  0  0  0
  -29.0983   15.8357  -15.8044 C   0  0  0  0  0  0  0  0  0  0  0  0
  -30.4710   16.4370  -15.9809 C   0  0  0  0  0  0  0  0  0  0  0  0
  -30.7826   17.8198  -15.4581 C   0  0  2  0  0  0  0  0  0  0  0  0
  -31.1326   17.8984  -13.9676 C   0  0  0  0  0  0  0  0  0  0  0  0
  -30.1791   17.8324  -13.0561 N   0  3  0  0  0  0  0  0  0  0  0  0
  -30.3827   17.8831  -12.0664 H   0  0  0  0  0  0  0  0  0  0  0  0
  -29.2049   17.7277  -13.3185 H   0  0  0  0  0  0  0  0  0  0  0  0
  -32.3934   18.0495  -13.6136 N   0  0  0  0  0  0  0  0  0  0  0  0
  -31.9281   18.3327  -16.2076 N   0  0  0  0  0  0  0  0  0  0  0  0
  -31.7405   18.9388  -17.4141 C   0  0  0  0  0  0  0  0  0  0  0  0
  -30.7444   19.5906  -17.6991 O   0  0  0  0  0  0  0  0  0  0  0  0
  -32.7725   18.7596  -18.2632 N   0  0  0  0  0  0  0  0  0  0  0  0
  -33.1175   18.0217  -14.3459 H   0  0  0  0  0  0  0  0  0  0  0  0
  -32.7172   18.1048  -12.6597 H   0  0  0  0  0  0  0  0  0  0  0  0
  -32.7508   17.7409  -16.2116 H   0  0  0  0  0  0  0  0  0  0  0  0
  -32.9770   19.4608  -18.9624 H   0  0  0  0  0  0  0  0  0  0  0  0
  -32.9365   17.8040  -18.5627 H   0  0  0  0  0  0  0  0  0  0  0  0
  1  2  1  0  0  0  0
  1  3  1  0  0  0  0
  2  3  1  0  0  0  0
  4  5  1  1  0  0  0
  4 10  1  0  0  0  0
  4  3  1  0  0  0  0
  5  6  2  0  0  0  0
  5  9  1  0  0  0  0
  6  7  1  0  0  0  0
  6  8  1  0  0  0  0
  9 14  1  0  0  0  0
  9 15  1  0  0  0  0
 10 11  1  0  0  0  0
 10 16  1  0  0  0  0
 11 12  2  0  0  0  0
 11 13  1  0  0  0  0
 13 17  1  0  0  0  0
 13 18  1  0  0  0  0
M  CHG  1   6   1
M  END
>  <CHROM.0>
-58.64376007,-61.59266494,-64.65362293,-43.24399535,-170.25377376,-59.60303365
-74.71526485,62.22049674,-169.22423750

>  <CHROM.1>
77.21030782,-84.35874578,-152.74946477,-32.03471330,150.91765947,-31.01758904
17.82519494,-15.87374595,-1.95671178,-0.75156249,1.65406883

>  <Name>
P109011981

>  <RI>
0

>  <Rbt.Current_Directory>
/home/fstefaniak/projects/zuza/docking/adenine/4TZX

>  <Rbt.Executable>
rbdock ($Id: //depot/dev/client3/rdock/2013.1/src/exe/rbdock.cxx#4 $)

>  <Rbt.Library>
libRbt.so (2013.1, Build901 2013/11/27)

>  <Rbt.Parameter_File>
/home/fstefaniak/progs/rDock//data/scripts/dock_solv.prm

>  <Rbt.Receptor>
4tzx.prm

>  <SCORE>
-58.8869

>  <SCORE.INTER>
-38.7646

>  <SCORE.INTER.CONST>
1

>  <SCORE.INTER.POLAR>
-6.21281

>  <SCORE.INTER.ROT>
5

>  <SCORE.INTER.SOLV>
24.5757

>  <SCORE.INTER.VDW>
-20.2589

>  <SCORE.INTER.norm>
-3.52406

>  <SCORE.INTRA>
-0.076643

>  <SCORE.INTRA.DIHEDRAL>
-0.290703

>  <SCORE.INTRA.DIHEDRAL.0>
5.56874

>  <SCORE.INTRA.POLAR>
0.657735

>  <SCORE.INTRA.POLAR.0>
-0.705809

>  <SCORE.INTRA.REPUL>
0

>  <SCORE.INTRA.REPUL.0>
0

>  <SCORE.INTRA.SOLV>
-1.53998

>  <SCORE.INTRA.SOLV.lig_0>
-33.8793

>  <SCORE.INTRA.VDW>
-1.3976

>  <SCORE.INTRA.VDW.0>
-0.297649

>  <SCORE.INTRA.norm>
-0.00696755

>  <SCORE.RESTR>
0

>  <SCORE.RESTR.CAVITY>
0

>  <SCORE.RESTR.norm>
0

>  <SCORE.SYSTEM>
-20.0456

>  <SCORE.SYSTEM.CONST>
0

>  <SCORE.SYSTEM.DIHEDRAL>
5.40295

>  <SCORE.SYSTEM.POLAR>
-3.04966

>  <SCORE.SYSTEM.SOLV>
-0.168915

>  <SCORE.SYSTEM.VDW>
-4.94288

>  <SCORE.SYSTEM.norm>
-1.82233

>  <SCORE.heavy>
11

>  <SCORE.norm>
-5.35335

$$$$
P109011981
 OpenBabel12072022113D
libRbt.so/2013.1/901 2013/11/27
 18 18  0  0  0  0  0  0  0  0999 V2000
  -29.0134   16.4083  -16.7748 C   0  0  0  0  0  0  0  0  0  0  0  0
  -29.2701   15.7432  -15.4506 C   0  0  0  0  0  0  0  0  0  0  0  0
  -30.3542   16.5674  -16.1006 C   0  0  0  0  0  0  0  0  0  0  0  0
  -30.7589   17.9045  -15.5256 C   0  0  2  0  0  0  0  0  0  0  0  0
  -31.1185   17.9005  -14.0353 C   0  0  0  0  0  0  0  0  0  0  0  0
  -30.1700   17.7955  -13.1224 N   0  3  0  0  0  0  0  0  0  0  0  0
  -30.3799   17.7915  -12.1328 H   0  0  0  0  0  0  0  0  0  0  0  0
  -29.1932   17.7143  -13.3836 H   0  0  0  0  0  0  0  0  0  0  0  0
  -32.3829   18.0203  -13.6820 N   0  0  0  0  0  0  0  0  0  0  0  0
  -31.9333   18.3698  -16.2614 N   0  0  0  0  0  0  0  0  0  0  0  0
  -31.7845   18.9904  -17.4659 C   0  0  0  0  0  0  0  0  0  0  0  0
  -30.8298   19.7017  -17.7501 O   0  0  0  0  0  0  0  0  0  0  0  0
  -32.8055   18.7528  -18.3140 N   0  0  0  0  0  0  0  0  0  0  0  0
  -33.1023   18.0243  -14.4195 H   0  0  0  0  0  0  0  0  0  0  0  0
  -32.7130   18.0217  -12.7287 H   0  0  0  0  0  0  0  0  0  0  0  0
  -32.7287   17.7418  -16.2612 H   0  0  0  0  0  0  0  0  0  0  0  0
  -33.0003   19.4040  -19.0625 H   0  0  0  0  0  0  0  0  0  0  0  0
  -32.9662   17.7787  -18.5489 H   0  0  0  0  0  0  0  0  0  0  0  0
  1  2  1  0  0  0  0
  1  3  1  0  0  0  0
  2  3  1  0  0  0  0
  4  5  1  1  0  0  0
  4 10  1  0  0  0  0
  4  3  1  0  0  0  0
  5  6  2  0  0  0  0
  5  9  1  0  0  0  0
  6  7  1  0  0  0  0
  6  8  1  0  0  0  0
  9 14  1  0  0  0  0
  9 15  1  0  0  0  0
 10 11  1  0  0  0  0
 10 16  1  0  0  0  0
 11 12  2  0  0  0  0
 11 13  1  0  0  0  0
 13 17  1  0  0  0  0
 13 18  1  0  0  0  0
M  CHG  1   6   1
M  END
>  <CHROM.0>
-59.28794041,-62.50263496,60.45309947,-41.57974631,-178.21405314,-61.59210494
57.82840426,-174.22052032,-169.59182772

>  <CHROM.1>
73.88016333,-81.91427351,-123.10623721,-33.01801131,156.39639923,-30.98530664
17.85798120,-15.86067487,-1.07687482,0.69675792,-1.43696738

>  <Name>
P109011981

>  <RI>
0

>  <Rbt.Current_Directory>
/home/fstefaniak/projects/zuza/docking/adenine/4TZX

>  <Rbt.Executable>
rbdock ($Id: //depot/dev/client3/rdock/2013.1/src/exe/rbdock.cxx#4 $)

>  <Rbt.Library>
libRbt.so (2013.1, Build901 2013/11/27)

>  <Rbt.Parameter_File>
/home/fstefaniak/progs/rDock//data/scripts/dock_solv.prm

>  <Rbt.Receptor>
4tzx.prm

>  <SCORE>
-58.3642

>  <SCORE.INTER>
-38.9434

>  <SCORE.INTER.CONST>
1

>  <SCORE.INTER.POLAR>
-6.32426

>  <SCORE.INTER.ROT>
5

>  <SCORE.INTER.SOLV>
24.4634

>  <SCORE.INTER.VDW>
-19.9692

>  <SCORE.INTER.norm>
-3.54031

>  <SCORE.INTRA>
-0.254432

>  <SCORE.INTRA.DIHEDRAL>
-1.284

>  <SCORE.INTRA.DIHEDRAL.0>
5.56874

>  <SCORE.INTRA.POLAR>
0.637663

>  <SCORE.INTRA.POLAR.0>
-0.705809

>  <SCORE.INTRA.REPUL>
0

>  <SCORE.INTRA.REPUL.0>
0

>  <SCORE.INTRA.SOLV>
-1.29022

>  <SCORE.INTRA.SOLV.lig_0>
-33.8793

>  <SCORE.INTRA.VDW>
-1.13538

>  <SCORE.INTRA.VDW.0>
-0.297649

>  <SCORE.INTRA.norm>
-0.0231301

>  <SCORE.RESTR>
0

>  <SCORE.RESTR.CAVITY>
0

>  <SCORE.RESTR.norm>
0

>  <SCORE.SYSTEM>
-19.1664

>  <SCORE.SYSTEM.CONST>
0

>  <SCORE.SYSTEM.DIHEDRAL>
4.34008

>  <SCORE.SYSTEM.POLAR>
-3.04462

>  <SCORE.SYSTEM.SOLV>
-0.237235

>  <SCORE.SYSTEM.VDW>
-3.99647

>  <SCORE.SYSTEM.norm>
-1.7424

>  <SCORE.heavy>
11

>  <SCORE.norm>
-5.30584

$$$$
P109018549
 OpenBabel12072022113D
libRbt.so/2013.1/901 2013/11/27
 14 14  0  0  0  0  0  0  0  0999 V2000
  -31.1155   18.0492  -14.1800 C   0  0  0  0  0  0  0  0  0  0  0  0
  -31.5538   17.2432  -15.3148 N   0  0  0  0  0  0  0  0  0  0  0  0
  -31.8952   18.0664  -16.4748 C   0  0  0  0  0  0  0  0  0  0  0  0
  -30.6789   18.5620  -17.2540 C   0  0  0  0  0  0  0  0  0  0  0  0
  -29.8394   17.3924  -17.7485 C   0  0  0  0  0  0  0  0  0  0  0  0
  -29.4741   16.4167  -16.6277 C   0  0  2  0  0  0  0  0  0  0  0  0
  -30.6268   16.1487  -15.6422 C   0  0  0  0  0  0  0  0  0  0  0  0
  -28.1435   16.7924  -15.9705 C   0  0  0  0  0  0  0  0  0  0  0  0
  -28.1230   17.5739  -14.9325 N   0  0  0  0  0  0  0  0  0  0  0  0
  -26.8047   17.8245  -14.5171 O   0  0  0  0  0  0  0  0  0  0  0  0
  -26.9949   16.3046  -16.5480 N   0  0  0  0  0  0  0  0  0  0  0  0
  -26.5706   18.6067  -15.0508 H   0  0  0  0  0  0  0  0  0  0  0  0
  -26.2531   16.9989  -16.4987 H   0  0  0  0  0  0  0  0  0  0  0  0
  -27.0934   15.8823  -17.4624 H   0  0  0  0  0  0  0  0  0  0  0  0
  1  2  1  0  0  0  0
  2  3  1  0  0  0  0
  2  7  1  0  0  0  0
  3  4  1  0  0  0  0
  4  5  1  0  0  0  0
  5  6  1  0  0  0  0
  6  7  1  0  0  0  0
  6  8  1  1  0  0  0
  8  9  2  0  0  0  0
  8 11  1  0  0  0  0
  9 10  1  0  0  0  0
 10 12  1  0  0  0  0
 11 13  1  0  0  0  0
 11 14  1  0  0  0  0
M  END
>  <CHROM.0>
-62.03588594,-63.86083310,-64.33592809,-42.52971813,-178.61478116,-57.54110527
-65.32119121,-58.46674504,-169.09138442

>  <CHROM.1>
91.50292389,142.71252721,88.43367110,-29.50619881,17.32761202,-15.90225185
3.06568148,0.16360456,-1.79956922

>  <Name>
P109018549

>  <RI>
0

>  <Rbt.Current_Directory>
/home/fstefaniak/projects/zuza/docking/adenine/4TZX

>  <Rbt.Executable>
rbdock ($Id: //depot/dev/client3/rdock/2013.1/src/exe/rbdock.cxx#4 $)

>  <Rbt.Library>
libRbt.so (2013.1, Build901 2013/11/27)

>  <Rbt.Parameter_File>
/home/fstefaniak/progs/rDock//data/scripts/dock_solv.prm

>  <Rbt.Receptor>
4tzx.prm

>  <SCORE>
-44.5784

>  <SCORE.INTER>
-22.9154

>  <SCORE.INTER.CONST>
1

>  <SCORE.INTER.POLAR>
-2.36784

>  <SCORE.INTER.ROT>
2

>  <SCORE.INTER.SOLV>
11.3752

>  <SCORE.INTER.VDW>
-16.1092

>  <SCORE.INTER.norm>
-2.08322

>  <SCORE.INTRA>
-0.396532

>  <SCORE.INTRA.DIHEDRAL>
-1.9846

>  <SCORE.INTRA.DIHEDRAL.0>
3.45321

>  <SCORE.INTRA.POLAR>
0.134359

>  <SCORE.INTRA.POLAR.0>
-0.134359

>  <SCORE.INTRA.REPUL>
0

>  <SCORE.INTRA.REPUL.0>
0

>  <SCORE.INTRA.SOLV>
0.025033

>  <SCORE.INTRA.SOLV.lig_0>
-10.3546

>  <SCORE.INTRA.VDW>
0.126431

>  <SCORE.INTRA.VDW.0>
-0.89227

>  <SCORE.INTRA.norm>
-0.0360483

>  <SCORE.RESTR>
0

>  <SCORE.RESTR.CAVITY>
0

>  <SCORE.RESTR.norm>
0

>  <SCORE.SYSTEM>
-21.2664

>  <SCORE.SYSTEM.CONST>
0

>  <SCORE.SYSTEM.DIHEDRAL>
4.36547

>  <SCORE.SYSTEM.POLAR>
-3.05537

>  <SCORE.SYSTEM.SOLV>
0.0115435

>  <SCORE.SYSTEM.VDW>
-5.45204

>  <SCORE.SYSTEM.norm>
-1.93331

>  <SCORE.heavy>
11

>  <SCORE.norm>
-4.05258

$$$$
P109018549
 OpenBabel12072022113D
libRbt.so/2013.1/901 2013/11/27
 14 14  0  0  0  0  0  0  0  0999 V2000
  -31.0864   18.0717  -14.1688 C   0  0  0  0  0  0  0  0  0  0  0  0
  -31.5479   17.2676  -15.2957 N   0  0  0  0  0  0  0  0  0  0  0  0
  -31.8934   18.0914  -16.4542 C   0  0  0  0  0  0  0  0  0  0  0  0
  -30.6806   18.5700  -17.2495 C   0  0  0  0  0  0  0  0  0  0  0  0
  -29.8612   17.3888  -17.7502 C   0  0  0  0  0  0  0  0  0  0  0  0
  -29.4942   16.4123  -16.6308 C   0  0  2  0  0  0  0  0  0  0  0  0
  -30.6381   16.1611  -15.6307 C   0  0  0  0  0  0  0  0  0  0  0  0
  -28.1513   16.7740  -15.9908 C   0  0  0  0  0  0  0  0  0  0  0  0
  -28.1077   17.5719  -14.9660 N   0  0  0  0  0  0  0  0  0  0  0  0
  -26.7816   17.8048  -14.5657 O   0  0  0  0  0  0  0  0  0  0  0  0
  -27.0169   16.2557  -16.5695 N   0  0  0  0  0  0  0  0  0  0  0  0
  -26.5522   18.6004  -15.0813 H   0  0  0  0  0  0  0  0  0  0  0  0
  -26.2602   16.9344  -16.5321 H   0  0  0  0  0  0  0  0  0  0  0  0
  -27.1297   15.8256  -17.4786 H   0  0  0  0  0  0  0  0  0  0  0  0
  1  2  1  0  0  0  0
  2  3  1  0  0  0  0
  2  7  1  0  0  0  0
  3  4  1  0  0  0  0
  4  5  1  0  0  0  0
  5  6  1  0  0  0  0
  6  7  1  0  0  0  0
  6  8  1  1  0  0  0
  8  9  2  0  0  0  0
  8 11  1  0  0  0  0
  9 10  1  0  0  0  0
 10 12  1  0  0  0  0
 11 13  1  0  0  0  0
 11 14  1  0  0  0  0
M  END
>  <CHROM.0>
-58.96198050,-62.45238610,-61.69853502,-42.12321427,-58.01565100,-61.40082495
-66.60184945,-176.73449756,-169.30095478

>  <CHROM.1>
90.62716572,143.09578817,91.12186001,-29.50649237,17.32654137,-15.90853054
3.08193216,0.17257485,-1.81146109

>  <Name>
P109018549

>  <RI>
0

>  <Rbt.Current_Directory>
/home/fstefaniak/projects/zuza/docking/adenine/4TZX

>  <Rbt.Executable>
rbdock ($Id: //depot/dev/client3/rdock/2013.1/src/exe/rbdock.cxx#4 $)

>  <Rbt.Library>
libRbt.so (2013.1, Build901 2013/11/27)

>  <Rbt.Parameter_File>
/home/fstefaniak/progs/rDock//data/scripts/dock_solv.prm

>  <Rbt.Receptor>
4tzx.prm

>  <SCORE>
-44.3674

>  <SCORE.INTER>
-22.922

>  <SCORE.INTER.CONST>
1

>  <SCORE.INTER.POLAR>
-2.34923

>  <SCORE.INTER.ROT>
2

>  <SCORE.INTER.SOLV>
11.3551

>  <SCORE.INTER.VDW>
-16.1689

>  <SCORE.INTER.norm>
-2.08382

>  <SCORE.INTRA>
-0.431918

>  <SCORE.INTRA.DIHEDRAL>
-1.9862

>  <SCORE.INTRA.DIHEDRAL.0>
3.45321

>  <SCORE.INTRA.POLAR>
0.134359

>  <SCORE.INTRA.POLAR.0>
-0.134359

>  <SCORE.INTRA.REPUL>
0

>  <SCORE.INTRA.REPUL.0>
0

>  <SCORE.INTRA.SOLV>
0.0220961

>  <SCORE.INTRA.SOLV.lig_0>
-10.3546

>  <SCORE.INTRA.VDW>
0.0933155

>  <SCORE.INTRA.VDW.0>
-0.89227

>  <SCORE.INTRA.norm>
-0.0392653

>  <SCORE.RESTR>
0

>  <SCORE.RESTR.CAVITY>
0

>  <SCORE.RESTR.norm>
0

>  <SCORE.SYSTEM>
-21.0135

>  <SCORE.SYSTEM.CONST>
0

>  <SCORE.SYSTEM.DIHEDRAL>
4.37311

>  <SCORE.SYSTEM.POLAR>
-3.06548

>  <SCORE.SYSTEM.SOLV>
0.0644381

>  <SCORE.SYSTEM.VDW>
-5.2699

>  <SCORE.SYSTEM.norm>
-1.91032

>  <SCORE.heavy>
11

>  <SCORE.norm>
-4.0334

$$$$
P109018549
 OpenBabel12072022113D
libRbt.so/2013.1/901 2013/11/27
 14 14  0  0  0  0  0  0  0  0999 V2000
  -31.0873   18.0740  -14.2031 C   0  0  0  0  0  0  0  0  0  0  0  0
  -31.5268   17.2704  -15.3390 N   0  0  0  0  0  0  0  0  0  0  0  0
  -31.8358   18.0935  -16.5082 C   0  0  0  0  0  0  0  0  0  0  0  0
  -30.5993   18.5595  -17.2738 C   0  0  0  0  0  0  0  0  0  0  0  0
  -29.7774   17.3700  -17.7502 C   0  0  0  0  0  0  0  0  0  0  0  0
  -29.4472   16.3939  -16.6191 C   0  0  2  0  0  0  0  0  0  0  0  0
  -30.6182   16.1553  -15.6477 C   0  0  0  0  0  0  0  0  0  0  0  0
  -28.1180   16.7462  -15.9462 C   0  0  0  0  0  0  0  0  0  0  0  0
  -28.0767   17.6434  -15.0070 N   0  0  0  0  0  0  0  0  0  0  0  0
  -26.7602   17.8437  -14.5600 O   0  0  0  0  0  0  0  0  0  0  0  0
  -26.9898   16.1087  -16.4059 N   0  0  0  0  0  0  0  0  0  0  0  0
  -26.4841   18.6171  -15.0864 H   0  0  0  0  0  0  0  0  0  0  0  0
  -27.0004   16.0619  -17.4220 H   0  0  0  0  0  0  0  0  0  0  0  0
  -26.7559   15.2293  -15.9630 H   0  0  0  0  0  0  0  0  0  0  0  0
  1  2  1  0  0  0  0
  2  3  1  0  0  0  0
  2  7  1  0  0  0  0
  3  4  1  0  0  0  0
  4  5  1  0  0  0  0
  5  6  1  0  0  0  0
  6  7  1  0  0  0  0
  6  8  1  1  0  0  0
  8  9  2  0  0  0  0
  8 11  1  0  0  0  0
  9 10  1  0  0  0  0
 10 12  1  0  0  0  0
 11 13  1  0  0  0  0
 11 14  1  0  0  0  0
M  END
>  <CHROM.0>
-61.39699712,-61.49279701,-63.44633746,-42.02164630,-175.38592884,-61.97983850
-66.46871294,-58.46458023,-168.89669367

>  <CHROM.1>
84.03214436,42.16596313,95.79799411,-29.47119127,17.30833518,-15.90429931
3.07217655,0.19743832,-1.85756772

>  <Name>
P109018549

>  <RI>
0

>  <Rbt.Current_Directory>
/home/fstefaniak/projects/zuza/docking/adenine/4TZX

>  <Rbt.Executable>
rbdock ($Id: //depot/dev/client3/rdock/2013.1/src/exe/rbdock.cxx#4 $)

>  <Rbt.Library>
libRbt.so (2013.1, Build901 2013/11/27)

>  <Rbt.Parameter_File>
/home/fstefaniak/progs/rDock//data/scripts/dock_solv.prm

>  <Rbt.Receptor>
4tzx.prm

>  <SCORE>
-44.3659

>  <SCORE.INTER>
-22.521

>  <SCORE.INTER.CONST>
1

>  <SCORE.INTER.POLAR>
-2.2007

>  <SCORE.INTER.ROT>
2

>  <SCORE.INTER.SOLV>
11.1778

>  <SCORE.INTER.VDW>
-16.3376

>  <SCORE.INTER.norm>
-2.04737

>  <SCORE.INTRA>
-0.564814

>  <SCORE.INTRA.DIHEDRAL>
-1.97036

>  <SCORE.INTRA.DIHEDRAL.0>
3.45321

>  <SCORE.INTRA.POLAR>
0.134359

>  <SCORE.INTRA.POLAR.0>
-0.134359

>  <SCORE.INTRA.REPUL>
0

>  <SCORE.INTRA.REPUL.0>
0

>  <SCORE.INTRA.SOLV>
-0.0350462

>  <SCORE.INTRA.SOLV.lig_0>
-10.3546

>  <SCORE.INTRA.VDW>
-0.0189341

>  <SCORE.INTRA.VDW.0>
-0.89227

>  <SCORE.INTRA.norm>
-0.0513467

>  <SCORE.RESTR>
0

>  <SCORE.RESTR.CAVITY>
0

>  <SCORE.RESTR.norm>
0

>  <SCORE.SYSTEM>
-21.2801

>  <SCORE.SYSTEM.CONST>
0

>  <SCORE.SYSTEM.DIHEDRAL>
4.49448

>  <SCORE.SYSTEM.POLAR>
-3.06206

>  <SCORE.SYSTEM.SOLV>
0.00465565

>  <SCORE.SYSTEM.VDW>
-5.47955

>  <SCORE.SYSTEM.norm>
-1.93455

>  <SCORE.heavy>
11

>  <SCORE.norm>
-4.03326

$$$$
P109018794
 OpenBabel12072022113D
libRbt.so/2013.1/901 2013/11/27
 14 14  0  0  0  0  0  0  0  0999 V2000
  -30.1310   17.7057  -18.9073 C   0  0  0  0  0  0  0  0  0  0  0  0
  -29.6820   18.2488  -17.6283 N   0  0  0  0  0  0  0  0  0  0  0  0
  -30.7316   19.0032  -16.9341 C   0  0  0  0  0  0  0  0  0  0  0  0
  -31.8564   18.1297  -16.3785 C   0  0  0  0  0  0  0  0  0  0  0  0
  -31.3342   16.9947  -15.4912 C   0  0  0  0  0  0  0  0  0  0  0  0
  -30.1316   16.2803  -16.1158 C   0  0  0  0  0  0  0  0  0  0  0  0
  -29.1074   17.2251  -16.7542 C   0  0  0  0  0  0  0  0  0  0  0  0
  -31.1251   17.4993  -14.0585 C   0  0  0  0  0  0  0  0  0  0  0  0
  -29.8970   17.7285  -13.6879 N   0  0  0  0  0  0  0  0  0  0  0  0
  -29.8510   18.1859  -12.3598 O   0  0  0  0  0  0  0  0  0  0  0  0
  -32.1866   17.6639  -13.2069 N   0  0  0  0  0  0  0  0  0  0  0  0
  -29.6267   19.1278  -12.4792 H   0  0  0  0  0  0  0  0  0  0  0  0
  -32.7395   18.5009  -13.3286 H   0  0  0  0  0  0  0  0  0  0  0  0
  -31.8718   17.5512  -12.2456 H   0  0  0  0  0  0  0  0  0  0  0  0
  1  2  1  0  0  0  0
  2  3  1  0  0  0  0
  2  7  1  0  0  0  0
  3  4  1  0  0  0  0
  4  5  1  0  0  0  0
  5  6  1  0  0  0  0
  5  8  1  0  0  0  0
  6  7  1  0  0  0  0
  8  9  2  0  0  0  0
  8 11  1  0  0  0  0
  9 10  1  0  0  0  0
 10 12  1  0  0  0  0
 11 13  1  0  0  0  0
 11 14  1  0  0  0  0
M  END
>  <CHROM.0>
-57.16010313,59.15847673,-64.32176953,-43.79236797,-175.91520231,-174.22520290
-67.17577532,-62.22367237,-168.50617107

>  <CHROM.1>
-103.81695537,-79.08355837,-107.71472165,-30.54127955,17.72337995,-15.53828862
1.42368501,0.13832847,-1.54990898

>  <Name>
P109018794

>  <RI>
0

>  <Rbt.Current_Directory>
/home/fstefaniak/projects/zuza/docking/adenine/4TZX

>  <Rbt.Executable>
rbdock ($Id: //depot/dev/client3/rdock/2013.1/src/exe/rbdock.cxx#4 $)

>  <Rbt.Library>
libRbt.so (2013.1, Build901 2013/11/27)

>  <Rbt.Parameter_File>
/home/fstefaniak/progs/rDock//data/scripts/dock_solv.prm

>  <Rbt.Receptor>
4tzx.prm

>  <SCORE>
-45.5466

>  <SCORE.INTER>
-24.9048

>  <SCORE.INTER.CONST>
1

>  <SCORE.INTER.POLAR>
-3.11368

>  <SCORE.INTER.ROT>
2

>  <SCORE.INTER.SOLV>
14.0423

>  <SCORE.INTER.VDW>
-15.8384

>  <SCORE.INTER.norm>
-2.26407

>  <SCORE.INTRA>
-0.395483

>  <SCORE.INTRA.DIHEDRAL>
-1.76976

>  <SCORE.INTRA.DIHEDRAL.0>
3.4968

>  <SCORE.INTRA.POLAR>
0.145529

>  <SCORE.INTRA.POLAR.0>
-0.172368

>  <SCORE.INTRA.REPUL>
0

>  <SCORE.INTRA.REPUL.0>
0

>  <SCORE.INTRA.SOLV>
-0.31483

>  <SCORE.INTRA.SOLV.lig_0>
-10.1918

>  <SCORE.INTRA.VDW>
0.152015

>  <SCORE.INTRA.VDW.0>
-0.866341

>  <SCORE.INTRA.norm>
-0.035953

>  <SCORE.RESTR>
0

>  <SCORE.RESTR.CAVITY>
0

>  <SCORE.RESTR.norm>
0

>  <SCORE.SYSTEM>
-20.2464

>  <SCORE.SYSTEM.CONST>
0

>  <SCORE.SYSTEM.DIHEDRAL>
4.49739

>  <SCORE.SYSTEM.POLAR>
-3.05542

>  <SCORE.SYSTEM.SOLV>
-0.0494817

>  <SCORE.SYSTEM.VDW>
-4.7955

>  <SCORE.SYSTEM.norm>
-1.84058

>  <SCORE.heavy>
11

>  <SCORE.norm>
-4.1406

$$$$
P109018794
 OpenBabel12072022113D
libRbt.so/2013.1/901 2013/11/27
 14 14  0  0  0  0  0  0  0  0999 V2000
  -30.2112   17.7690  -18.9694 C   0  0  0  0  0  0  0  0  0  0  0  0
  -29.7415   18.3044  -17.6945 N   0  0  0  0  0  0  0  0  0  0  0  0
  -30.7854   19.0378  -16.9699 C   0  0  0  0  0  0  0  0  0  0  0  0
  -31.8867   18.1441  -16.3997 C   0  0  0  0  0  0  0  0  0  0  0  0
  -31.3311   17.0068  -15.5360 C   0  0  0  0  0  0  0  0  0  0  0  0
  -30.1333   16.3145  -16.1939 C   0  0  0  0  0  0  0  0  0  0  0  0
  -29.1352   17.2792  -16.8441 C   0  0  0  0  0  0  0  0  0  0  0  0
  -31.0974   17.4990  -14.1028 C   0  0  0  0  0  0  0  0  0  0  0  0
  -29.8624   17.7156  -13.7482 N   0  0  0  0  0  0  0  0  0  0  0  0
  -29.7937   18.1627  -12.4176 O   0  0  0  0  0  0  0  0  0  0  0  0
  -32.1454   17.6657  -13.2350 N   0  0  0  0  0  0  0  0  0  0  0  0
  -29.6150   19.1146  -12.5343 H   0  0  0  0  0  0  0  0  0  0  0  0
  -32.6847   18.5145  -13.3337 H   0  0  0  0  0  0  0  0  0  0  0  0
  -31.8208   17.5291  -12.2800 H   0  0  0  0  0  0  0  0  0  0  0  0
  1  2  1  0  0  0  0
  2  3  1  0  0  0  0
  2  7  1  0  0  0  0
  3  4  1  0  0  0  0
  4  5  1  0  0  0  0
  5  6  1  0  0  0  0
  5  8  1  0  0  0  0
  6  7  1  0  0  0  0
  8  9  2  0  0  0  0
  8 11  1  0  0  0  0
  9 10  1  0  0  0  0
 10 12  1  0  0  0  0
 11 13  1  0  0  0  0
 11 14  1  0  0  0  0
M  END
>  <CHROM.0>
-60.02407020,-60.82596202,61.16189631,-41.90290364,-55.19459782,-173.50246734
56.12488194,-58.79216101,-169.52840569

>  <CHROM.1>
-105.09696918,-79.96000376,-104.55989985,-30.54867189,17.74412180,-15.59168802
1.44621718,0.14569500,-1.53874800

>  <Name>
P109018794

>  <RI>
0

>  <Rbt.Current_Directory>
/home/fstefaniak/projects/zuza/docking/adenine/4TZX

>  <Rbt.Executable>
rbdock ($Id: //depot/dev/client3/rdock/2013.1/src/exe/rbdock.cxx#4 $)

>  <Rbt.Library>
libRbt.so (2013.1, Build901 2013/11/27)

>  <Rbt.Parameter_File>
/home/fstefaniak/progs/rDock//data/scripts/dock_solv.prm

>  <Rbt.Receptor>
4tzx.prm

>  <SCORE>
-44.0502

>  <SCORE.INTER>
-24.8165

>  <SCORE.INTER.CONST>
1

>  <SCORE.INTER.POLAR>
-3.14005

>  <SCORE.INTER.ROT>
2

>  <SCORE.INTER.SOLV>
14.0292

>  <SCORE.INTER.VDW>
-15.6872

>  <SCORE.INTER.norm>
-2.25605

>  <SCORE.INTRA>
-0.381249

>  <SCORE.INTRA.DIHEDRAL>
-1.83099

>  <SCORE.INTRA.DIHEDRAL.0>
3.4968

>  <SCORE.INTRA.POLAR>
0.152515

>  <SCORE.INTRA.POLAR.0>
-0.172368

>  <SCORE.INTRA.REPUL>
0

>  <SCORE.INTRA.REPUL.0>
0

>  <SCORE.INTRA.SOLV>
-0.31239

>  <SCORE.INTRA.SOLV.lig_0>
-10.1918

>  <SCORE.INTRA.VDW>
0.171893

>  <SCORE.INTRA.VDW.0>
-0.866341

>  <SCORE.INTRA.norm>
-0.034659

>  <SCORE.RESTR>
0

>  <SCORE.RESTR.CAVITY>
0

>  <SCORE.RESTR.norm>
0

>  <SCORE.SYSTEM>
-18.8524

>  <SCORE.SYSTEM.CONST>
0

>  <SCORE.SYSTEM.DIHEDRAL>
4.44562

>  <SCORE.SYSTEM.POLAR>
-3.04277

>  <SCORE.SYSTEM.SOLV>
-0.0310248

>  <SCORE.SYSTEM.VDW>
-3.89723

>  <SCORE.SYSTEM.norm>
-1.71385

>  <SCORE.heavy>
11

>  <SCORE.norm>
-4.00456

$$$$
P109018794
 OpenBabel12072022113D
libRbt.so/2013.1/901 2013/11/27
 14 14  0  0  0  0  0  0  0  0999 V2000
  -30.1632   17.6143  -19.0090 C   0  0  0  0  0  0  0  0  0  0  0  0
  -29.6253   18.1816  -17.7756 N   0  0  0  0  0  0  0  0  0  0  0  0
  -30.6001   19.0167  -17.0647 C   0  0  0  0  0  0  0  0  0  0  0  0
  -31.7395   18.2261  -16.4220 C   0  0  0  0  0  0  0  0  0  0  0  0
  -31.2334   17.1000  -15.5142 C   0  0  0  0  0  0  0  0  0  0  0  0
  -30.1006   16.2994  -16.1643 C   0  0  0  0  0  0  0  0  0  0  0  0
  -29.0618   17.1634  -16.8880 C   0  0  0  0  0  0  0  0  0  0  0  0
  -30.9292   17.6476  -14.1147 C   0  0  0  0  0  0  0  0  0  0  0  0
  -29.7244   17.4570  -13.6563 N   0  0  0  0  0  0  0  0  0  0  0  0
  -29.5836   18.0084  -12.3714 O   0  0  0  0  0  0  0  0  0  0  0  0
  -31.8991   18.2758  -13.3773 N   0  0  0  0  0  0  0  0  0  0  0  0
  -29.2968   18.9187  -12.5735 H   0  0  0  0  0  0  0  0  0  0  0  0
  -31.8618   19.2851  -13.3457 H   0  0  0  0  0  0  0  0  0  0  0  0
  -31.9368   17.8663  -12.4462 H   0  0  0  0  0  0  0  0  0  0  0  0
  1  2  1  0  0  0  0
  2  3  1  0  0  0  0
  2  7  1  0  0  0  0
  3  4  1  0  0  0  0
  4  5  1  0  0  0  0
  5  6  1  0  0  0  0
  5  8  1  0  0  0  0
  6  7  1  0  0  0  0
  8  9  2  0  0  0  0
  8 11  1  0  0  0  0
  9 10  1  0  0  0  0
 10 12  1  0  0  0  0
 11 13  1  0  0  0  0
 11 14  1  0  0  0  0
M  END
>  <CHROM.0>
-62.25618871,-62.48851410,-68.57645532,-43.01078017,-58.57560069,-60.88109189
-65.10411745,-174.53061136,-168.88925175

>  <CHROM.1>
-123.78629555,-102.19514843,-89.30100763,-30.41148499,17.75269238,-15.61469288
1.47649299,0.44287324,-1.55378747

>  <Name>
P109018794

>  <RI>
0

>  <Rbt.Current_Directory>
/home/fstefaniak/projects/zuza/docking/adenine/4TZX

>  <Rbt.Executable>
rbdock ($Id: //depot/dev/client3/rdock/2013.1/src/exe/rbdock.cxx#4 $)

>  <Rbt.Library>
libRbt.so (2013.1, Build901 2013/11/27)

>  <Rbt.Parameter_File>
/home/fstefaniak/progs/rDock//data/scripts/dock_solv.prm

>  <Rbt.Receptor>
4tzx.prm

>  <SCORE>
-43.5971

>  <SCORE.INTER>
-22.3605

>  <SCORE.INTER.CONST>
1

>  <SCORE.INTER.POLAR>
-2.55976

>  <SCORE.INTER.ROT>
2

>  <SCORE.INTER.SOLV>
14.0555

>  <SCORE.INTER.VDW>
-15.993

>  <SCORE.INTER.norm>
-2.03277

>  <SCORE.INTRA>
-0.0834034

>  <SCORE.INTRA.DIHEDRAL>
-1.9906

>  <SCORE.INTRA.DIHEDRAL.0>
3.4968

>  <SCORE.INTRA.POLAR>
0.172368

>  <SCORE.INTRA.POLAR.0>
-0.172368

>  <SCORE.INTRA.REPUL>
0

>  <SCORE.INTRA.REPUL.0>
0

>  <SCORE.INTRA.SOLV>
-0.294663

>  <SCORE.INTRA.SOLV.lig_0>
-10.1918

>  <SCORE.INTRA.VDW>
0.473181

>  <SCORE.INTRA.VDW.0>
-0.866341

>  <SCORE.INTRA.norm>
-0.00758212

>  <SCORE.RESTR>
0

>  <SCORE.RESTR.CAVITY>
0

>  <SCORE.RESTR.norm>
0

>  <SCORE.SYSTEM>
-21.1532

>  <SCORE.SYSTEM.CONST>
0

>  <SCORE.SYSTEM.DIHEDRAL>
4.61283

>  <SCORE.SYSTEM.POLAR>
-3.03554

>  <SCORE.SYSTEM.SOLV>
0.0494168

>  <SCORE.SYSTEM.VDW>
-5.53777

>  <SCORE.SYSTEM.norm>
-1.92302

>  <SCORE.heavy>
11

>  <SCORE.norm>
-3.96338

$$$$
P109049405
 OpenBabel12072022113D
libRbt.so/2013.1/901 2013/11/27
 14 14  0  0  0  0  0  0  0  0999 V2000
  -29.3379   15.9782  -16.7690 C   0  0  0  0  0  0  0  0  0  0  0  0
  -30.0497   17.2541  -17.0231 C   0  0  0  0  0  0  0  0  0  0  0  0
  -29.9524   18.1427  -18.0735 C   0  0  0  0  0  0  0  0  0  0  0  0
  -30.8877   19.1512  -17.7890 C   0  0  0  0  0  0  0  0  0  0  0  0
  -31.5432   18.9294  -16.6485 N   0  0  0  0  0  0  0  0  0  0  0  0
  -30.9998   17.7801  -16.1819 N   0  0  0  0  0  0  0  0  0  0  0  0
  -31.4753   17.2438  -14.9184 C   0  0  0  0  0  0  0  0  0  0  0  0
  -30.6735   17.8209  -13.7674 C   0  0  0  0  0  0  0  0  0  0  0  0
  -29.3860   17.6227  -13.7596 N   0  0  0  0  0  0  0  0  0  0  0  0
  -28.8051   18.1918  -12.6144 O   0  0  0  0  0  0  0  0  0  0  0  0
  -31.3449   18.5110  -12.7821 N   0  0  0  0  0  0  0  0  0  0  0  0
  -28.5233   17.4042  -12.1128 H   0  0  0  0  0  0  0  0  0  0  0  0
  -32.2916   18.7923  -13.0413 H   0  0  0  0  0  0  0  0  0  0  0  0
  -31.3000   18.0181  -11.8950 H   0  0  0  0  0  0  0  0  0  0  0  0
  1  2  1  0  0  0  0
  2  3  2  0  0  0  0
  2  6  1  0  0  0  0
  3  4  1  0  0  0  0
  4  5  2  0  0  0  0
  5  6  1  0  0  0  0
  6  7  1  0  0  0  0
  7  8  1  0  0  0  0
  8  9  2  0  0  0  0
  8 11  1  0  0  0  0
  9 10  1  0  0  0  0
 10 12  1  0  0  0  0
 11 13  1  0  0  0  0
 11 14  1  0  0  0  0
M  END
>  <CHROM.0>
-62.74601582,-68.67689673,-64.55860690,-42.32771837,-178.17395817,-66.52567657
-69.55380966,-64.86967431,-169.07594237

>  <CHROM.1>
92.38702101,-59.15996724,-15.91854041,111.61707563,-30.38419698,17.86915033
-15.36510806,-1.69172154,-0.66703160,1.48048879

>  <Name>
P109049405

>  <RI>
0

>  <Rbt.Current_Directory>
/home/fstefaniak/projects/zuza/docking/adenine/4TZX

>  <Rbt.Executable>
rbdock ($Id: //depot/dev/client3/rdock/2013.1/src/exe/rbdock.cxx#4 $)

>  <Rbt.Library>
libRbt.so (2013.1, Build901 2013/11/27)

>  <Rbt.Parameter_File>
/home/fstefaniak/progs/rDock//data/scripts/dock_solv.prm

>  <Rbt.Receptor>
4tzx.prm

>  <SCORE>
-55.8443

>  <SCORE.INTER>
-34.4194

>  <SCORE.INTER.CONST>
1

>  <SCORE.INTER.POLAR>
-4.3395

>  <SCORE.INTER.ROT>
3

>  <SCORE.INTER.SOLV>
12.8645

>  <SCORE.INTER.VDW>
-18.3694

>  <SCORE.INTER.norm>
-3.12904

>  <SCORE.INTRA>
-0.170568

>  <SCORE.INTRA.DIHEDRAL>
-1.85017

>  <SCORE.INTRA.DIHEDRAL.0>
6.26301

>  <SCORE.INTRA.POLAR>
0.216212

>  <SCORE.INTRA.POLAR.0>
-0.216212

>  <SCORE.INTRA.REPUL>
0

>  <SCORE.INTRA.REPUL.0>
0

>  <SCORE.INTRA.SOLV>
-0.339485

>  <SCORE.INTRA.SOLV.lig_0>
-11.4521

>  <SCORE.INTRA.VDW>
0.189138

>  <SCORE.INTRA.VDW.0>
-1.19659

>  <SCORE.INTRA.norm>
-0.0155062

>  <SCORE.RESTR>
0

>  <SCORE.RESTR.CAVITY>
0

>  <SCORE.RESTR.norm>
0

>  <SCORE.SYSTEM>
-21.2543

>  <SCORE.SYSTEM.CONST>
0

>  <SCORE.SYSTEM.DIHEDRAL>
5.25363

>  <SCORE.SYSTEM.POLAR>
-3.04568

>  <SCORE.SYSTEM.SOLV>
-0.0347974

>  <SCORE.SYSTEM.VDW>
-5.7569

>  <SCORE.SYSTEM.norm>
-1.93221

>  <SCORE.heavy>
11

>  <SCORE.norm>
-5.07676

$$$$
P109049405
 OpenBabel12072022113D
libRbt.so/2013.1/901 2013/11/27
 14 14  0  0  0  0  0  0  0  0999 V2000
  -31.3110   18.0269  -14.1197 C   0  0  0  0  0  0  0  0  0  0  0  0
  -30.4064   17.5325  -15.1858 C   0  0  0  0  0  0  0  0  0  0  0  0
  -29.4545   16.5345  -15.1642 C   0  0  0  0  0  0  0  0  0  0  0  0
  -28.9355   16.4940  -16.4687 C   0  0  0  0  0  0  0  0  0  0  0  0
  -29.5105   17.3899  -17.2726 N   0  0  0  0  0  0  0  0  0  0  0  0
  -30.3877   18.0323  -16.4652 N   0  0  0  0  0  0  0  0  0  0  0  0
  -31.1898   19.1090  -17.0195 C   0  0  0  0  0  0  0  0  0  0  0  0
  -31.8186   18.6750  -18.3300 C   0  0  0  0  0  0  0  0  0  0  0  0
  -33.1180   18.6955  -18.4206 N   0  0  0  0  0  0  0  0  0  0  0  0
  -33.5329   18.2352  -19.6811 O   0  0  0  0  0  0  0  0  0  0  0  0
  -30.9891   18.2674  -19.3515 N   0  0  0  0  0  0  0  0  0  0  0  0
  -33.4019   17.2719  -19.6024 H   0  0  0  0  0  0  0  0  0  0  0  0
  -30.9134   17.2537  -19.4479 H   0  0  0  0  0  0  0  0  0  0  0  0
  -31.2214   18.7382  -20.2211 H   0  0  0  0  0  0  0  0  0  0  0  0
  1  2  1  0  0  0  0
  2  3  2  0  0  0  0
  2  6  1  0  0  0  0
  3  4  1  0  0  0  0
  4  5  2  0  0  0  0
  5  6  1  0  0  0  0
  6  7  1  0  0  0  0
  7  8  1  0  0  0  0
  8  9  2  0  0  0  0
  8 11  1  0  0  0  0
  9 10  1  0  0  0  0
 10 12  1  0  0  0  0
 11 13  1  0  0  0  0
 11 14  1  0  0  0  0
M  END
>  <CHROM.0>
-49.63923037,-174.59501230,-64.84702805,-43.67793744,-172.71619038,-62.41079424
-65.64405447,58.27140396,-169.12929398

>  <CHROM.1>
-130.66873853,120.98425000,100.08635136,75.46483515,-31.04021237,17.92333598
-17.13449192,0.89266852,-0.44838353,1.54922403

>  <Name>
P109049405

>  <RI>
0

>  <Rbt.Current_Directory>
/home/fstefaniak/projects/zuza/docking/adenine/4TZX

>  <Rbt.Executable>
rbdock ($Id: //depot/dev/client3/rdock/2013.1/src/exe/rbdock.cxx#4 $)

>  <Rbt.Library>
libRbt.so (2013.1, Build901 2013/11/27)

>  <Rbt.Parameter_File>
/home/fstefaniak/progs/rDock//data/scripts/dock_solv.prm

>  <Rbt.Receptor>
4tzx.prm

>  <SCORE>
-55.7542

>  <SCORE.INTER>
-35.966

>  <SCORE.INTER.CONST>
1

>  <SCORE.INTER.POLAR>
-4.60031

>  <SCORE.INTER.ROT>
3

>  <SCORE.INTER.SOLV>
12.3878

>  <SCORE.INTER.VDW>
-18.3722

>  <SCORE.INTER.norm>
-3.26963

>  <SCORE.INTRA>
0.189799

>  <SCORE.INTRA.DIHEDRAL>
-1.95741

>  <SCORE.INTRA.DIHEDRAL.0>
6.26301

>  <SCORE.INTRA.POLAR>
0.216212

>  <SCORE.INTRA.POLAR.0>
-0.216212

>  <SCORE.INTRA.REPUL>
0

>  <SCORE.INTRA.REPUL.0>
0

>  <SCORE.INTRA.SOLV>
0.0916679

>  <SCORE.INTRA.SOLV.lig_0>
-11.4521

>  <SCORE.INTRA.VDW>
0.387549

>  <SCORE.INTRA.VDW.0>
-1.19659

>  <SCORE.INTRA.norm>
0.0172545

>  <SCORE.RESTR>
0

>  <SCORE.RESTR.CAVITY>
0

>  <SCORE.RESTR.norm>
0

>  <SCORE.SYSTEM>
-19.9781

>  <SCORE.SYSTEM.CONST>
0

>  <SCORE.SYSTEM.DIHEDRAL>
4.99626

>  <SCORE.SYSTEM.POLAR>
-3.12108

>  <SCORE.SYSTEM.SOLV>
-0.184623

>  <SCORE.SYSTEM.VDW>
-4.51899

>  <SCORE.SYSTEM.norm>
-1.81619

>  <SCORE.heavy>
11

>  <SCORE.norm>
-5.06857

$$$$
P109049405
 OpenBabel12072022113D
libRbt.so/2013.1/901 2013/11/27
 14 14  0  0  0  0  0  0  0  0999 V2000
  -29.9806   17.4815  -17.7977 C   0  0  0  0  0  0  0  0  0  0  0  0
  -30.0056   17.4826  -16.3149 C   0  0  0  0  0  0  0  0  0  0  0  0
  -30.7936   18.1895  -15.4308 C   0  0  0  0  0  0  0  0  0  0  0  0
  -30.3903   17.7605  -14.1557 C   0  0  0  0  0  0  0  0  0  0  0  0
  -29.4228   16.8437  -14.2102 N   0  0  0  0  0  0  0  0  0  0  0  0
  -29.1829   16.7058  -15.5359 N   0  0  0  0  0  0  0  0  0  0  0  0
  -28.1506   15.7796  -15.9676 C   0  0  0  0  0  0  0  0  0  0  0  0
  -26.7970   16.4642  -15.9682 C   0  0  0  0  0  0  0  0  0  0  0  0
  -25.9085   16.0606  -16.8312 N   0  0  0  0  0  0  0  0  0  0  0  0
  -24.7082   16.7732  -16.6749 O   0  0  0  0  0  0  0  0  0  0  0  0
  -26.5685   17.4653  -15.0498 N   0  0  0  0  0  0  0  0  0  0  0  0
  -24.1694   16.1563  -16.1454 H   0  0  0  0  0  0  0  0  0  0  0  0
  -25.6251   17.4655  -14.6593 H   0  0  0  0  0  0  0  0  0  0  0  0
  -26.8529   18.3691  -15.4158 H   0  0  0  0  0  0  0  0  0  0  0  0
  1  2  1  0  0  0  0
  2  3  2  0  0  0  0
  2  6  1  0  0  0  0
  3  4  1  0  0  0  0
  4  5  2  0  0  0  0
  5  6  1  0  0  0  0
  6  7  1  0  0  0  0
  7  8  1  0  0  0  0
  8  9  2  0  0  0  0
  8 11  1  0  0  0  0
  9 10  1  0  0  0  0
 10 12  1  0  0  0  0
 11 13  1  0  0  0  0
 11 14  1  0  0  0  0
M  END
>  <CHROM.0>
-62.27361081,61.10974010,-70.79645846,-42.97481290,59.51277849,-57.97872095
-167.60672623,-59.02816062,-168.61600591

>  <CHROM.1>
95.05059574,-149.88059795,141.70994745,98.71271994,-28.23409539,16.99537501
-15.83344797,2.93783987,-0.19617274,1.50005925

>  <Name>
P109049405

>  <RI>
0

>  <Rbt.Current_Directory>
/home/fstefaniak/projects/zuza/docking/adenine/4TZX

>  <Rbt.Executable>
rbdock ($Id: //depot/dev/client3/rdock/2013.1/src/exe/rbdock.cxx#4 $)

>  <Rbt.Library>
libRbt.so (2013.1, Build901 2013/11/27)

>  <Rbt.Parameter_File>
/home/fstefaniak/progs/rDock//data/scripts/dock_solv.prm

>  <Rbt.Receptor>
4tzx.prm

>  <SCORE>
-55.6861

>  <SCORE.INTER>
-36.5614

>  <SCORE.INTER.CONST>
1

>  <SCORE.INTER.POLAR>
-5.13909

>  <SCORE.INTER.ROT>
3

>  <SCORE.INTER.SOLV>
10.1749

>  <SCORE.INTER.VDW>
-16.2356

>  <SCORE.INTER.norm>
-3.32376

>  <SCORE.INTRA>
-0.288652

>  <SCORE.INTRA.DIHEDRAL>
-2.10314

>  <SCORE.INTRA.DIHEDRAL.0>
6.26301

>  <SCORE.INTRA.POLAR>
0.216212

>  <SCORE.INTRA.POLAR.0>
-0.216212

>  <SCORE.INTRA.REPUL>
0

>  <SCORE.INTRA.REPUL.0>
0

>  <SCORE.INTRA.SOLV>
0.318336

>  <SCORE.INTRA.SOLV.lig_0>
-11.4521

>  <SCORE.INTRA.VDW>
-0.13137

>  <SCORE.INTRA.VDW.0>
-1.19659

>  <SCORE.INTRA.norm>
-0.0262411

>  <SCORE.RESTR>
0

>  <SCORE.RESTR.CAVITY>
0

>  <SCORE.RESTR.norm>
0

>  <SCORE.SYSTEM>
-18.8361

>  <SCORE.SYSTEM.CONST>
0

>  <SCORE.SYSTEM.DIHEDRAL>
5.24357

>  <SCORE.SYSTEM.POLAR>
-3.03275

>  <SCORE.SYSTEM.SOLV>
0.00420603

>  <SCORE.SYSTEM.VDW>
-4.19749

>  <SCORE.SYSTEM.norm>
-1.71237

>  <SCORE.heavy>
11

>  <SCORE.norm>
-5.06237

$$$$
P109615893
 OpenBabel12072022113D
libRbt.so/2013.1/901 2013/11/27
 14 14  0  0  0  0  0  0  0  0999 V2000
  -30.6597   18.5100  -18.5208 C   0  0  0  0  0  0  0  0  0  0  0  0
  -30.1705   17.3283  -17.8192 N   0  0  0  0  0  0  0  0  0  0  0  0
  -29.6164   17.7150  -16.4994 C   0  0  0  0  0  0  0  0  0  0  0  0
  -29.0380   16.4872  -15.7825 C   0  0  0  0  0  0  0  0  0  0  0  0
  -29.3720   16.1723  -14.6450 O   0  0  0  0  0  0  0  0  0  0  0  0
  -28.1529   15.7670  -16.5527 N   0  0  0  0  0  0  0  0  0  0  0  0
  -27.4539   14.5678  -16.1225 C   0  0  2  0  0  0  0  0  0  0  0  0
  -25.9969   14.5286  -16.5997 C   0  0  0  0  0  0  0  0  0  0  0  0
  -25.3215   13.2330  -16.1571 C   0  0  0  0  0  0  0  0  0  0  0  0
  -26.1635   12.0220  -16.5399 C   0  0  0  0  0  0  0  0  0  0  0  0
  -27.4759   12.1264  -15.9856 O   0  0  0  0  0  0  0  0  0  0  0  0
  -28.1758   13.2644  -16.5019 C   0  0  0  0  0  0  0  0  0  0  0  0
  -29.4108   16.9183  -18.3672 H   0  0  0  0  0  0  0  0  0  0  0  0
  -27.9465   16.1748  -17.4627 H   0  0  0  0  0  0  0  0  0  0  0  0
  1  2  1  0  0  0  0
  2  3  1  0  0  0  0
  2 13  1  0  0  0  0
  3  4  1  0  0  0  0
  4  5  2  0  0  0  0
  4  6  1  0  0  0  0
  6 14  1  0  0  0  0
  7  8  1  0  0  0  0
  7 12  1  0  0  0  0
  7  6  1  6  0  0  0
  8  9  1  0  0  0  0
  9 10  1  0  0  0  0
 10 11  1  0  0  0  0
 11 12  1  0  0  0  0
M  END
>  <CHROM.0>
-60.84245385,-62.69058307,-68.07759706,-42.80097476,-176.38788973,-60.64254669
-69.70755261,-63.35031750,-168.82193946

>  <CHROM.1>
-177.28530341,-126.44454914,-139.78135365,-28.15406246,15.14415806,-16.48940500
-2.66690781,-0.85424190,1.96696863

>  <Name>
P109615893

>  <RI>
0

>  <Rbt.Current_Directory>
/home/fstefaniak/projects/zuza/docking/adenine/4TZX

>  <Rbt.Executable>
rbdock ($Id: //depot/dev/client3/rdock/2013.1/src/exe/rbdock.cxx#4 $)

>  <Rbt.Library>
libRbt.so (2013.1, Build901 2013/11/27)

>  <Rbt.Parameter_File>
/home/fstefaniak/progs/rDock//data/scripts/dock_solv.prm

>  <Rbt.Receptor>
4tzx.prm

>  <SCORE>
-49.6202

>  <SCORE.INTER>
-29.1997

>  <SCORE.INTER.CONST>
1

>  <SCORE.INTER.POLAR>
-3.09034

>  <SCORE.INTER.ROT>
3

>  <SCORE.INTER.SOLV>
10.5521

>  <SCORE.INTER.VDW>
-18.2827

>  <SCORE.INTER.norm>
-2.43331

>  <SCORE.INTRA>
0.89113

>  <SCORE.INTRA.DIHEDRAL>
0.142049

>  <SCORE.INTRA.DIHEDRAL.0>
2.54998

>  <SCORE.INTRA.POLAR>
0.192976

>  <SCORE.INTRA.POLAR.0>
-0.192976

>  <SCORE.INTRA.REPUL>
0

>  <SCORE.INTRA.REPUL.0>
0

>  <SCORE.INTRA.SOLV>
-0.348205

>  <SCORE.INTRA.SOLV.lig_0>
-14.5609

>  <SCORE.INTRA.VDW>
0.338088

>  <SCORE.INTRA.VDW.0>
-1.05684

>  <SCORE.INTRA.norm>
0.0742608

>  <SCORE.RESTR>
0

>  <SCORE.RESTR.CAVITY>
0

>  <SCORE.RESTR.norm>
0

>  <SCORE.SYSTEM>
-21.3116

>  <SCORE.SYSTEM.CONST>
0

>  <SCORE.SYSTEM.DIHEDRAL>
4.86434

>  <SCORE.SYSTEM.POLAR>
-3.04461

>  <SCORE.SYSTEM.SOLV>
-0.0178107

>  <SCORE.SYSTEM.VDW>
-5.67453

>  <SCORE.SYSTEM.norm>
-1.77597

>  <SCORE.heavy>
12

>  <SCORE.norm>
-4.13501

$$$$
P109615893
 OpenBabel12072022113D
libRbt.so/2013.1/901 2013/11/27
 14 14  0  0  0  0  0  0  0  0999 V2000
  -30.7725   18.4891  -18.4865 C   0  0  0  0  0  0  0  0  0  0  0  0
  -30.2225   17.3220  -17.8057 N   0  0  0  0  0  0  0  0  0  0  0  0
  -29.6255   17.7251  -16.5098 C   0  0  0  0  0  0  0  0  0  0  0  0
  -29.0507   16.5015  -15.7829 C   0  0  0  0  0  0  0  0  0  0  0  0
  -29.3648   16.2126  -14.6329 O   0  0  0  0  0  0  0  0  0  0  0  0
  -28.1939   15.7535  -16.5585 N   0  0  0  0  0  0  0  0  0  0  0  0
  -27.5044   14.5512  -16.1213 C   0  0  2  0  0  0  0  0  0  0  0  0
  -26.0065   14.5755  -16.4497 C   0  0  0  0  0  0  0  0  0  0  0  0
  -25.3387   13.2757  -16.0076 C   0  0  0  0  0  0  0  0  0  0  0  0
  -26.1001   12.0657  -16.5349 C   0  0  0  0  0  0  0  0  0  0  0  0
  -27.4640   12.1063  -16.1119 O   0  0  0  0  0  0  0  0  0  0  0  0
  -28.1439   13.2520  -16.6378 C   0  0  0  0  0  0  0  0  0  0  0  0
  -29.4750   16.9325  -18.3846 H   0  0  0  0  0  0  0  0  0  0  0  0
  -28.0010   16.1413  -17.4801 H   0  0  0  0  0  0  0  0  0  0  0  0
  1  2  1  0  0  0  0
  2  3  1  0  0  0  0
  2 13  1  0  0  0  0
  3  4  1  0  0  0  0
  4  5  2  0  0  0  0
  4  6  1  0  0  0  0
  6 14  1  0  0  0  0
  7  8  1  0  0  0  0
  7 12  1  0  0  0  0
  7  6  1  6  0  0  0
  8  9  1  0  0  0  0
  9 10  1  0  0  0  0
 10 11  1  0  0  0  0
 11 12  1  0  0  0  0
M  END
>  <CHROM.0>
-60.51970823,-63.42837767,-64.36455069,-42.76842755,-57.74598622,-59.98693327
-64.33928748,-63.20059558,-168.97047047

>  <CHROM.1>
179.69761130,-126.04914456,-131.29059739,-28.17025339,15.15290348,-16.48365342
-3.08323368,-0.93374103,1.44110930

>  <Name>
P109615893

>  <RI>
0

>  <Rbt.Current_Directory>
/home/fstefaniak/projects/zuza/docking/adenine/4TZX

>  <Rbt.Executable>
rbdock ($Id: //depot/dev/client3/rdock/2013.1/src/exe/rbdock.cxx#4 $)

>  <Rbt.Library>
libRbt.so (2013.1, Build901 2013/11/27)

>  <Rbt.Parameter_File>
/home/fstefaniak/progs/rDock//data/scripts/dock_solv.prm

>  <Rbt.Receptor>
4tzx.prm

>  <SCORE>
-49.5813

>  <SCORE.INTER>
-29.1661

>  <SCORE.INTER.CONST>
1

>  <SCORE.INTER.POLAR>
-3.15544

>  <SCORE.INTER.ROT>
3

>  <SCORE.INTER.SOLV>
10.4094

>  <SCORE.INTER.VDW>
-17.9957

>  <SCORE.INTER.norm>
-2.43051

>  <SCORE.INTRA>
0.725177

>  <SCORE.INTRA.DIHEDRAL>
0.101387

>  <SCORE.INTRA.DIHEDRAL.0>
2.54998

>  <SCORE.INTRA.POLAR>
0.192976

>  <SCORE.INTRA.POLAR.0>
-0.192976

>  <SCORE.INTRA.REPUL>
0

>  <SCORE.INTRA.REPUL.0>
0

>  <SCORE.INTRA.SOLV>
-0.370781

>  <SCORE.INTRA.SOLV.lig_0>
-14.5609

>  <SCORE.INTRA.VDW>
0.203754

>  <SCORE.INTRA.VDW.0>
-1.05684

>  <SCORE.INTRA.norm>
0.0604314

>  <SCORE.RESTR>
0

>  <SCORE.RESTR.CAVITY>
0

>  <SCORE.RESTR.norm>
0

>  <SCORE.SYSTEM>
-21.1403

>  <SCORE.SYSTEM.CONST>
0

>  <SCORE.SYSTEM.DIHEDRAL>
4.29014

>  <SCORE.SYSTEM.POLAR>
-3.05663

>  <SCORE.SYSTEM.SOLV>
0.19147

>  <SCORE.SYSTEM.VDW>
-5.39867

>  <SCORE.SYSTEM.norm>
-1.7617

>  <SCORE.heavy>
12

>  <SCORE.norm>
-4.13177

$$$$
P109615893
 OpenBabel12072022113D
libRbt.so/2013.1/901 2013/11/27
 14 14  0  0  0  0  0  0  0  0999 V2000
  -30.6186   18.5209  -18.6145 C   0  0  0  0  0  0  0  0  0  0  0  0
  -30.2545   17.3306  -17.8538 N   0  0  0  0  0  0  0  0  0  0  0  0
  -29.6995   17.7211  -16.5355 C   0  0  0  0  0  0  0  0  0  0  0  0
  -29.1150   16.4965  -15.8182 C   0  0  0  0  0  0  0  0  0  0  0  0
  -29.4854   16.1500  -14.7013 O   0  0  0  0  0  0  0  0  0  0  0  0
  -28.1790   15.8168  -16.5647 N   0  0  0  0  0  0  0  0  0  0  0  0
  -27.4633   14.6296  -16.1282 C   0  0  2  0  0  0  0  0  0  0  0  0
  -25.9910   14.6349  -16.5578 C   0  0  0  0  0  0  0  0  0  0  0  0
  -25.2968   13.3505  -16.1112 C   0  0  0  0  0  0  0  0  0  0  0  0
  -26.0940   12.1241  -16.5382 C   0  0  0  0  0  0  0  0  0  0  0  0
  -27.4260   12.1868  -16.0259 O   0  0  0  0  0  0  0  0  0  0  0  0
  -28.1382   13.3140  -16.5491 C   0  0  0  0  0  0  0  0  0  0  0  0
  -29.5218   16.8323  -18.3643 H   0  0  0  0  0  0  0  0  0  0  0  0
  -27.9479   16.2479  -17.4578 H   0  0  0  0  0  0  0  0  0  0  0  0
  1  2  1  0  0  0  0
  2  3  1  0  0  0  0
  2 13  1  0  0  0  0
  3  4  1  0  0  0  0
  4  5  2  0  0  0  0
  4  6  1  0  0  0  0
  6 14  1  0  0  0  0
  7  8  1  0  0  0  0
  7 12  1  0  0  0  0
  7  6  1  6  0  0  0
  8  9  1  0  0  0  0
  9 10  1  0  0  0  0
 10 11  1  0  0  0  0
 11 12  1  0  0  0  0
M  END
>  <CHROM.0>
-59.86042840,-60.96213759,-65.50356254,-42.44701467,-179.01170514,-61.07095892
-67.20365104,-176.75164080,-168.89521563

>  <CHROM.1>
-171.26523532,-123.39819216,-140.33912305,-28.16762382,15.18921029,-16.51271492
-2.61264010,-0.80397624,2.03550488

>  <Name>
P109615893

>  <RI>
0

>  <Rbt.Current_Directory>
/home/fstefaniak/projects/zuza/docking/adenine/4TZX

>  <Rbt.Executable>
rbdock ($Id: //depot/dev/client3/rdock/2013.1/src/exe/rbdock.cxx#4 $)

>  <Rbt.Library>
libRbt.so (2013.1, Build901 2013/11/27)

>  <Rbt.Parameter_File>
/home/fstefaniak/progs/rDock//data/scripts/dock_solv.prm

>  <Rbt.Receptor>
4tzx.prm

>  <SCORE>
-49.5053

>  <SCORE.INTER>
-29.0611

>  <SCORE.INTER.CONST>
1

>  <SCORE.INTER.POLAR>
-3.00688

>  <SCORE.INTER.ROT>
3

>  <SCORE.INTER.SOLV>
10.579

>  <SCORE.INTER.VDW>
-18.4775

>  <SCORE.INTER.norm>
-2.42176

>  <SCORE.INTRA>
0.855949

>  <SCORE.INTRA.DIHEDRAL>
0.22925

>  <SCORE.INTRA.DIHEDRAL.0>
2.54998

>  <SCORE.INTRA.POLAR>
0.192976

>  <SCORE.INTRA.POLAR.0>
-0.192976

>  <SCORE.INTRA.REPUL>
0

>  <SCORE.INTRA.REPUL.0>
0

>  <SCORE.INTRA.SOLV>
-0.342962

>  <SCORE.INTRA.SOLV.lig_0>
-14.5609

>  <SCORE.INTRA.VDW>
0.256685

>  <SCORE.INTRA.VDW.0>
-1.05684

>  <SCORE.INTRA.norm>
0.071329

>  <SCORE.RESTR>
0

>  <SCORE.RESTR.CAVITY>
0

>  <SCORE.RESTR.norm>
0

>  <SCORE.SYSTEM>
-21.3001

>  <SCORE.SYSTEM.CONST>
0

>  <SCORE.SYSTEM.DIHEDRAL>
4.47774

>  <SCORE.SYSTEM.POLAR>
-3.05859

>  <SCORE.SYSTEM.SOLV>
-0.129553

>  <SCORE.SYSTEM.VDW>
-5.45416

>  <SCORE.SYSTEM.norm>
-1.77501

>  <SCORE.heavy>
12

>  <SCORE.norm>
-4.12544

$$$$
P111214489
 OpenBabel12072022113D
libRbt.so/2013.1/901 2013/11/27
 15 15  0  0  0  0  0  0  0  0999 V2000
  -24.9492   16.2076  -16.8332 C   0  0  0  0  0  0  0  0  0  0  0  0
  -25.9943   15.2759  -17.0387 C   0  0  0  0  0  0  0  0  0  0  0  0
  -27.0083   15.6327  -16.1737 C   0  0  0  0  0  0  0  0  0  0  0  0
  -26.6457   16.7375  -15.4599 O   0  0  0  0  0  0  0  0  0  0  0  0
  -25.3924   17.0728  -15.8611 C   0  0  0  0  0  0  0  0  0  0  0  0
  -28.3614   15.0840  -15.9083 C   0  0  0  0  0  0  0  0  0  0  0  0
  -29.4301   16.1244  -16.2060 C   0  0  0  0  0  0  0  0  0  0  0  0
  -29.3533   16.9588  -17.1100 O   0  0  0  0  0  0  0  0  0  0  0  0
  -30.5218   16.1717  -15.3676 N   0  0  0  0  0  0  0  0  0  0  0  0
  -31.0147   17.3272  -14.8271 C   0  0  0  0  0  0  0  0  0  0  0  0
  -31.8315   18.0823  -15.3322 O   0  0  0  0  0  0  0  0  0  0  0  0
  -30.4650   17.6126  -13.6141 N   0  0  0  0  0  0  0  0  0  0  0  0
  -31.2421   15.5389  -15.6824 H   0  0  0  0  0  0  0  0  0  0  0  0
  -29.8055   18.3767  -13.5620 H   0  0  0  0  0  0  0  0  0  0  0  0
  -31.1378   17.5926  -12.8555 H   0  0  0  0  0  0  0  0  0  0  0  0
  1  2  1  0  0  0  0
  1  5  2  0  0  0  0
  2  3  2  0  0  0  0
  3  4  1  0  0  0  0
  3  6  1  0  0  0  0
  4  5  1  0  0  0  0
  6  7  1  0  0  0  0
  7  8  2  0  0  0  0
  7  9  1  0  0  0  0
  9 10  1  0  0  0  0
  9 13  1  0  0  0  0
 10 11  2  0  0  0  0
 10 12  1  0  0  0  0
 12 14  1  0  0  0  0
 12 15  1  0  0  0  0
M  END
>  <CHROM.0>
-59.61467429,165.77615834,-71.59421745,-42.46721337,-63.81227932,-178.84557058
-167.02915076,-59.02017591,-168.95101087

>  <CHROM.1>
-118.86928987,34.58069448,132.41623610,87.10474481,107.42995628,-28.51236149
16.57330270,-15.77376990,-0.35740182,-0.00499016,0.86841892

>  <Name>
P111214489

>  <RI>
0

>  <Rbt.Current_Directory>
/home/fstefaniak/projects/zuza/docking/adenine/4TZX

>  <Rbt.Executable>
rbdock ($Id: //depot/dev/client3/rdock/2013.1/src/exe/rbdock.cxx#4 $)

>  <Rbt.Library>
libRbt.so (2013.1, Build901 2013/11/27)

>  <Rbt.Parameter_File>
/home/fstefaniak/progs/rDock//data/scripts/dock_solv.prm

>  <Rbt.Receptor>
4tzx.prm

>  <SCORE>
-64.916

>  <SCORE.INTER>
-44.2485

>  <SCORE.INTER.CONST>
1

>  <SCORE.INTER.POLAR>
-6.73149

>  <SCORE.INTER.ROT>
5

>  <SCORE.INTER.SOLV>
14.842

>  <SCORE.INTER.VDW>
-18.9414

>  <SCORE.INTER.norm>
-3.68738

>  <SCORE.INTRA>
-1.29889

>  <SCORE.INTRA.DIHEDRAL>
-0.575721

>  <SCORE.INTRA.DIHEDRAL.0>
3.45931

>  <SCORE.INTRA.POLAR>
0

>  <SCORE.INTRA.POLAR.0>
0

>  <SCORE.INTRA.REPUL>
0.000968844

>  <SCORE.INTRA.REPUL.0>
0

>  <SCORE.INTRA.SOLV>
0.222132

>  <SCORE.INTRA.SOLV.lig_0>
-20.2357

>  <SCORE.INTRA.VDW>
-1.12694

>  <SCORE.INTRA.VDW.0>
-0.340091

>  <SCORE.INTRA.norm>
-0.108241

>  <SCORE.RESTR>
0

>  <SCORE.RESTR.CAVITY>
0

>  <SCORE.RESTR.norm>
0

>  <SCORE.SYSTEM>
-19.3686

>  <SCORE.SYSTEM.CONST>
0

>  <SCORE.SYSTEM.DIHEDRAL>
6.38006

>  <SCORE.SYSTEM.POLAR>
-3.04352

>  <SCORE.SYSTEM.SOLV>
0.0280825

>  <SCORE.SYSTEM.VDW>
-4.90336

>  <SCORE.SYSTEM.norm>
-1.61405

>  <SCORE.heavy>
12

>  <SCORE.norm>
-5.40967

$$$$
P111214489
 OpenBabel12072022113D
libRbt.so/2013.1/901 2013/11/27
 15 15  0  0  0  0  0  0  0  0999 V2000
  -24.9656   16.1261  -16.9040 C   0  0  0  0  0  0  0  0  0  0  0  0
  -26.0165   15.1968  -17.0906 C   0  0  0  0  0  0  0  0  0  0  0  0
  -27.0219   15.5678  -16.2217 C   0  0  0  0  0  0  0  0  0  0  0  0
  -26.6487   16.6789  -15.5232 O   0  0  0  0  0  0  0  0  0  0  0  0
  -25.3972   17.0041  -15.9381 C   0  0  0  0  0  0  0  0  0  0  0  0
  -28.3752   15.0283  -15.9393 C   0  0  0  0  0  0  0  0  0  0  0  0
  -29.4384   16.0854  -16.1951 C   0  0  0  0  0  0  0  0  0  0  0  0
  -29.3837   16.9193  -17.1013 O   0  0  0  0  0  0  0  0  0  0  0  0
  -30.4959   16.1490  -15.3151 N   0  0  0  0  0  0  0  0  0  0  0  0
  -30.9795   17.3163  -14.7920 C   0  0  0  0  0  0  0  0  0  0  0  0
  -31.8053   18.0600  -15.2994 O   0  0  0  0  0  0  0  0  0  0  0  0
  -30.4085   17.6289  -13.5957 N   0  0  0  0  0  0  0  0  0  0  0  0
  -31.2212   15.4992  -15.5801 H   0  0  0  0  0  0  0  0  0  0  0  0
  -29.7479   18.3935  -13.5726 H   0  0  0  0  0  0  0  0  0  0  0  0
  -31.0678   17.6267  -12.8251 H   0  0  0  0  0  0  0  0  0  0  0  0
  1  2  1  0  0  0  0
  1  5  2  0  0  0  0
  2  3  2  0  0  0  0
  3  4  1  0  0  0  0
  3  6  1  0  0  0  0
  4  5  1  0  0  0  0
  6  7  1  0  0  0  0
  7  8  2  0  0  0  0
  7  9  1  0  0  0  0
  9 10  1  0  0  0  0
  9 13  1  0  0  0  0
 10 11  2  0  0  0  0
 10 12  1  0  0  0  0
 12 14  1  0  0  0  0
 12 15  1  0  0  0  0
M  END
>  <CHROM.0>
-56.75320282,168.76615246,61.66920069,-43.14846516,-56.60910856,60.06091121
56.17779968,59.90986780,-169.20783320

>  <CHROM.1>
-120.78713088,36.11699008,134.80739315,85.57267864,107.38744008,-28.50885166
16.53077998,-15.78739663,-0.38041566,0.00480771,0.85008238

>  <Name>
P111214489

>  <RI>
0

>  <Rbt.Current_Directory>
/home/fstefaniak/projects/zuza/docking/adenine/4TZX

>  <Rbt.Executable>
rbdock ($Id: //depot/dev/client3/rdock/2013.1/src/exe/rbdock.cxx#4 $)

>  <Rbt.Library>
libRbt.so (2013.1, Build901 2013/11/27)

>  <Rbt.Parameter_File>
/home/fstefaniak/progs/rDock//data/scripts/dock_solv.prm

>  <Rbt.Receptor>
4tzx.prm

>  <SCORE>
-61.63

>  <SCORE.INTER>
-43.9323

>  <SCORE.INTER.CONST>
1

>  <SCORE.INTER.POLAR>
-6.63361

>  <SCORE.INTER.ROT>
5

>  <SCORE.INTER.SOLV>
14.9284

>  <SCORE.INTER.VDW>
-19.0856

>  <SCORE.INTER.norm>
-3.66102

>  <SCORE.INTRA>
-1.28188

>  <SCORE.INTRA.DIHEDRAL>
-0.576799

>  <SCORE.INTRA.DIHEDRAL.0>
3.45931

>  <SCORE.INTRA.POLAR>
0

>  <SCORE.INTRA.POLAR.0>
0

>  <SCORE.INTRA.REPUL>
0

>  <SCORE.INTRA.REPUL.0>
0

>  <SCORE.INTRA.SOLV>
0.227025

>  <SCORE.INTRA.SOLV.lig_0>
-20.2357

>  <SCORE.INTRA.VDW>
-1.10699

>  <SCORE.INTRA.VDW.0>
-0.340091

>  <SCORE.INTRA.norm>
-0.106823

>  <SCORE.RESTR>
0

>  <SCORE.RESTR.CAVITY>
0

>  <SCORE.RESTR.norm>
0

>  <SCORE.SYSTEM>
-16.4158

>  <SCORE.SYSTEM.CONST>
0

>  <SCORE.SYSTEM.DIHEDRAL>
4.686

>  <SCORE.SYSTEM.POLAR>
-3.05271

>  <SCORE.SYSTEM.SOLV>
-0.230984

>  <SCORE.SYSTEM.VDW>
-2.25319

>  <SCORE.SYSTEM.norm>
-1.36799

>  <SCORE.heavy>
12

>  <SCORE.norm>
-5.13583

$$$$
P111214489
 OpenBabel12072022113D
libRbt.so/2013.1/901 2013/11/27
 15 15  0  0  0  0  0  0  0  0999 V2000
  -30.7939   19.5154  -18.2819 C   0  0  0  0  0  0  0  0  0  0  0  0
  -30.4193   18.8448  -17.0934 C   0  0  0  0  0  0  0  0  0  0  0  0
  -29.9132   17.6211  -17.4808 C   0  0  0  0  0  0  0  0  0  0  0  0
  -29.9467   17.5115  -18.8404 O   0  0  0  0  0  0  0  0  0  0  0  0
  -30.4903   18.6616  -19.3159 C   0  0  0  0  0  0  0  0  0  0  0  0
  -29.3428   16.4720  -16.7349 C   0  0  0  0  0  0  0  0  0  0  0  0
  -29.4194   16.7145  -15.2353 C   0  0  0  0  0  0  0  0  0  0  0  0
  -28.4371   16.8615  -14.5053 O   0  0  0  0  0  0  0  0  0  0  0  0
  -30.6674   16.7050  -14.6530 N   0  0  0  0  0  0  0  0  0  0  0  0
  -31.3696   17.8369  -14.3432 C   0  0  0  0  0  0  0  0  0  0  0  0
  -32.1702   18.4209  -15.0575 O   0  0  0  0  0  0  0  0  0  0  0  0
  -31.0648   18.3187  -13.1063 N   0  0  0  0  0  0  0  0  0  0  0  0
  -31.2409   15.9747  -15.0484 H   0  0  0  0  0  0  0  0  0  0  0  0
  -31.0698   17.6695  -12.3317 H   0  0  0  0  0  0  0  0  0  0  0  0
  -30.2759   18.9559  -13.1086 H   0  0  0  0  0  0  0  0  0  0  0  0
  1  2  1  0  0  0  0
  1  5  2  0  0  0  0
  2  3  2  0  0  0  0
  3  4  1  0  0  0  0
  3  6  1  0  0  0  0
  4  5  1  0  0  0  0
  6  7  1  0  0  0  0
  7  8  2  0  0  0  0
  7  9  1  0  0  0  0
  9 10  1  0  0  0  0
  9 13  1  0  0  0  0
 10 11  2  0  0  0  0
 10 12  1  0  0  0  0
 12 14  1  0  0  0  0
 12 15  1  0  0  0  0
M  END
>  <CHROM.0>
-59.68985772,-63.16176723,-71.55748838,-42.35552333,-57.96491966,-175.75616340
-168.47450694,-175.85203783,-169.04322764

>  <CHROM.1>
3.61264404,-113.88262126,-99.75192557,90.88838788,-49.06273693,-30.33973071
17.77148065,-16.15226535,1.48803389,0.69954390,-1.34604713

>  <Name>
P111214489

>  <RI>
0

>  <Rbt.Current_Directory>
/home/fstefaniak/projects/zuza/docking/adenine/4TZX

>  <Rbt.Executable>
rbdock ($Id: //depot/dev/client3/rdock/2013.1/src/exe/rbdock.cxx#4 $)

>  <Rbt.Library>
libRbt.so (2013.1, Build901 2013/11/27)

>  <Rbt.Parameter_File>
/home/fstefaniak/progs/rDock//data/scripts/dock_solv.prm

>  <Rbt.Receptor>
4tzx.prm

>  <SCORE>
-58.7593

>  <SCORE.INTER>
-37.9197

>  <SCORE.INTER.CONST>
1

>  <SCORE.INTER.POLAR>
-4.74598

>  <SCORE.INTER.ROT>
5

>  <SCORE.INTER.SOLV>
16.6625

>  <SCORE.INTER.VDW>
-21.9474

>  <SCORE.INTER.norm>
-3.15998

>  <SCORE.INTRA>
-0.492142

>  <SCORE.INTRA.DIHEDRAL>
-0.611071

>  <SCORE.INTRA.DIHEDRAL.0>
3.45931

>  <SCORE.INTRA.POLAR>
0

>  <SCORE.INTRA.POLAR.0>
0

>  <SCORE.INTRA.REPUL>
0

>  <SCORE.INTRA.REPUL.0>
0

>  <SCORE.INTRA.SOLV>
1.17667

>  <SCORE.INTRA.SOLV.lig_0>
-20.2357

>  <SCORE.INTRA.VDW>
-0.774941

>  <SCORE.INTRA.VDW.0>
-0.340091

>  <SCORE.INTRA.norm>
-0.0410118

>  <SCORE.RESTR>
0

>  <SCORE.RESTR.CAVITY>
0

>  <SCORE.RESTR.norm>
0

>  <SCORE.SYSTEM>
-20.3475

>  <SCORE.SYSTEM.CONST>
0

>  <SCORE.SYSTEM.DIHEDRAL>
5.45047

>  <SCORE.SYSTEM.POLAR>
-3.04567

>  <SCORE.SYSTEM.SOLV>
-0.0886772

>  <SCORE.SYSTEM.VDW>
-5.20002

>  <SCORE.SYSTEM.norm>
-1.69562

>  <SCORE.heavy>
12

>  <SCORE.norm>
-4.89661

$$$$
P111223242
 OpenBabel12072022113D
libRbt.so/2013.1/901 2013/11/27
 13 13  0  0  0  0  0  0  0  0999 V2000
  -30.5751   17.7165  -14.7177 C   0  0  0  0  0  0  0  0  0  0  0  0
  -29.6436   16.8886  -15.6133 C   0  0  0  0  0  0  0  0  0  0  0  0
  -29.9605   15.4673  -15.3870 N   0  0  0  0  0  0  0  0  0  0  0  0
  -29.0043   14.5905  -15.8975 N   0  0  0  0  0  0  0  0  0  0  0  0
  -27.6438   14.9616  -16.0635 C   0  0  0  0  0  0  0  0  0  0  0  0
  -27.3172   16.3011  -15.7240 N   0  3  0  0  0  0  0  0  0  0  0  0
  -26.3292   16.5197  -15.8385 H   0  0  0  0  0  0  0  0  0  0  0  0
  -28.2587   17.1928  -15.2123 N   0  0  0  0  0  0  0  0  0  0  0  0
  -26.5028   13.8989  -16.6810 S   0  5  0  0  0  0  0  0  0  0  0  0
  -29.8829   17.2733  -17.0824 C   0  0  0  0  0  0  0  0  0  0  0  0
  -30.8865   15.2084  -15.7234 H   0  0  0  0  0  0  0  0  0  0  0  0
  -29.1918   13.6176  -16.1328 H   0  0  0  0  0  0  0  0  0  0  0  0
  -27.9846   18.1504  -15.4258 H   0  0  0  0  0  0  0  0  0  0  0  0
  1  2  1  0  0  0  0
  2  3  1  0  0  0  0
  2  8  1  0  0  0  0
  2 10  1  0  0  0  0
  3  4  1  0  0  0  0
  3 11  1  0  0  0  0
  4  5  1  0  0  0  0
  4 12  1  0  0  0  0
  5  6  2  0  0  0  0
  5  9  1  0  0  0  0
  6  7  1  0  0  0  0
  6  8  1  0  0  0  0
  8 13  1  0  0  0  0
M  CHG  2   6   1   9  -1
M  END
>  <CHROM.0>
-61.97853590,-62.26524517,-63.02012529,-42.81620195,-56.89858618,-62.82992516
-65.22784615,-62.33403536,-169.64042088

>  <CHROM.1>
-28.49577241,15.78799435,-15.92569521,-2.35949393,-0.11131987,-2.93063878

>  <Name>
P111223242

>  <RI>
0

>  <Rbt.Current_Directory>
/home/fstefaniak/projects/zuza/docking/adenine/4TZX

>  <Rbt.Executable>
rbdock ($Id: //depot/dev/client3/rdock/2013.1/src/exe/rbdock.cxx#4 $)

>  <Rbt.Library>
libRbt.so (2013.1, Build901 2013/11/27)

>  <Rbt.Parameter_File>
/home/fstefaniak/progs/rDock//data/scripts/dock_solv.prm

>  <Rbt.Receptor>
4tzx.prm

>  <SCORE>
-46.1622

>  <SCORE.INTER>
-25.0529

>  <SCORE.INTER.CONST>
1

>  <SCORE.INTER.POLAR>
-2.88622

>  <SCORE.INTER.ROT>
0

>  <SCORE.INTER.SOLV>
15.2087

>  <SCORE.INTER.VDW>
-15.7507

>  <SCORE.INTER.norm>
-2.78366

>  <SCORE.INTRA>
0

>  <SCORE.INTRA.DIHEDRAL>
0

>  <SCORE.INTRA.DIHEDRAL.0>
0

>  <SCORE.INTRA.POLAR>
0

>  <SCORE.INTRA.POLAR.0>
0

>  <SCORE.INTRA.REPUL>
0

>  <SCORE.INTRA.REPUL.0>
0

>  <SCORE.INTRA.SOLV>
0

>  <SCORE.INTRA.SOLV.lig_0>
-30.2341

>  <SCORE.INTRA.VDW>
0

>  <SCORE.INTRA.VDW.0>
0

>  <SCORE.INTRA.norm>
0

>  <SCORE.RESTR>
0

>  <SCORE.RESTR.CAVITY>
0

>  <SCORE.RESTR.norm>
0

>  <SCORE.SYSTEM>
-21.1093

>  <SCORE.SYSTEM.CONST>
0

>  <SCORE.SYSTEM.DIHEDRAL>
4.23527

>  <SCORE.SYSTEM.POLAR>
-3.03514

>  <SCORE.SYSTEM.SOLV>
0.186001

>  <SCORE.SYSTEM.VDW>
-5.42951

>  <SCORE.SYSTEM.norm>
-2.34548

>  <SCORE.heavy>
9

>  <SCORE.norm>
-5.12913

$$$$
P111223242
 OpenBabel12072022113D
libRbt.so/2013.1/901 2013/11/27
 13 13  0  0  0  0  0  0  0  0999 V2000
  -30.6615   17.7154  -14.5063 C   0  0  0  0  0  0  0  0  0  0  0  0
  -29.7380   16.9741  -15.4824 C   0  0  0  0  0  0  0  0  0  0  0  0
  -30.0317   15.5350  -15.3630 N   0  0  0  0  0  0  0  0  0  0  0  0
  -29.0748   14.7150  -15.9596 N   0  0  0  0  0  0  0  0  0  0  0  0
  -27.7230   15.1178  -16.1222 C   0  0  0  0  0  0  0  0  0  0  0  0
  -27.4069   16.4310  -15.6843 N   0  3  0  0  0  0  0  0  0  0  0  0
  -26.4243   16.6724  -15.8004 H   0  0  0  0  0  0  0  0  0  0  0  0
  -28.3492   17.2660  -15.0856 N   0  0  0  0  0  0  0  0  0  0  0  0
  -26.5812   14.1237  -16.8437 S   0  5  0  0  0  0  0  0  0  0  0  0
  -30.0123   17.4698  -16.9116 C   0  0  0  0  0  0  0  0  0  0  0  0
  -30.9610   15.2900  -15.7007 H   0  0  0  0  0  0  0  0  0  0  0  0
  -29.2545   13.7611  -16.2674 H   0  0  0  0  0  0  0  0  0  0  0  0
  -28.0920   18.2412  -15.2280 H   0  0  0  0  0  0  0  0  0  0  0  0
  1  2  1  0  0  0  0
  2  3  1  0  0  0  0
  2  8  1  0  0  0  0
  2 10  1  0  0  0  0
  3  4  1  0  0  0  0
  3 11  1  0  0  0  0
  4  5  1  0  0  0  0
  4 12  1  0  0  0  0
  5  6  2  0  0  0  0
  5  9  1  0  0  0  0
  6  7  1  0  0  0  0
  6  8  1  0  0  0  0
  8 13  1  0  0  0  0
M  CHG  2   6   1   9  -1
M  END
>  <CHROM.0>
-60.11005869,-172.60021932,-65.69814452,-43.00881146,-57.70797054,-63.62791074
-68.06493114,-60.54766994,-169.41162892

>  <CHROM.1>
-28.58260798,15.91835491,-15.90300986,-2.36794268,-0.13408815,-2.85271746

>  <Name>
P111223242

>  <RI>
0

>  <Rbt.Current_Directory>
/home/fstefaniak/projects/zuza/docking/adenine/4TZX

>  <Rbt.Executable>
rbdock ($Id: //depot/dev/client3/rdock/2013.1/src/exe/rbdock.cxx#4 $)

>  <Rbt.Library>
libRbt.so (2013.1, Build901 2013/11/27)

>  <Rbt.Parameter_File>
/home/fstefaniak/progs/rDock//data/scripts/dock_solv.prm

>  <Rbt.Receptor>
4tzx.prm

>  <SCORE>
-44.7176

>  <SCORE.INTER>
-23.6973

>  <SCORE.INTER.CONST>
1

>  <SCORE.INTER.POLAR>
-2.77352

>  <SCORE.INTER.ROT>
0

>  <SCORE.INTER.SOLV>
15.6127

>  <SCORE.INTER.VDW>
-15.3573

>  <SCORE.INTER.norm>
-2.63303

>  <SCORE.INTRA>
0

>  <SCORE.INTRA.DIHEDRAL>
0

>  <SCORE.INTRA.DIHEDRAL.0>
0

>  <SCORE.INTRA.POLAR>
0

>  <SCORE.INTRA.POLAR.0>
0

>  <SCORE.INTRA.REPUL>
0

>  <SCORE.INTRA.REPUL.0>
0

>  <SCORE.INTRA.SOLV>
0

>  <SCORE.INTRA.SOLV.lig_0>
-30.2341

>  <SCORE.INTRA.VDW>
0

>  <SCORE.INTRA.VDW.0>
0

>  <SCORE.INTRA.norm>
0

>  <SCORE.RESTR>
0

>  <SCORE.RESTR.CAVITY>
0

>  <SCORE.RESTR.norm>
0

>  <SCORE.SYSTEM>
-21.0204

>  <SCORE.SYSTEM.CONST>
0

>  <SCORE.SYSTEM.DIHEDRAL>
4.70138

>  <SCORE.SYSTEM.POLAR>
-3.04242

>  <SCORE.SYSTEM.SOLV>
0.146254

>  <SCORE.SYSTEM.VDW>
-5.48805

>  <SCORE.SYSTEM.norm>
-2.3356

>  <SCORE.heavy>
9

>  <SCORE.norm>
-4.96863

$$$$
P111223242
 OpenBabel12072022113D
libRbt.so/2013.1/901 2013/11/27
 13 13  0  0  0  0  0  0  0  0999 V2000
  -30.6321   17.7174  -14.5443 C   0  0  0  0  0  0  0  0  0  0  0  0
  -29.7167   16.9562  -15.5127 C   0  0  0  0  0  0  0  0  0  0  0  0
  -30.0227   15.5213  -15.3752 N   0  0  0  0  0  0  0  0  0  0  0  0
  -29.0740   14.6858  -15.9632 N   0  0  0  0  0  0  0  0  0  0  0  0
  -27.7190   15.0747  -16.1327 C   0  0  0  0  0  0  0  0  0  0  0  0
  -27.3908   16.3904  -15.7115 N   0  3  0  0  0  0  0  0  0  0  0  0
  -26.4063   16.6217  -15.8320 H   0  0  0  0  0  0  0  0  0  0  0  0
  -28.3247   17.2408  -15.1216 N   0  0  0  0  0  0  0  0  0  0  0  0
  -26.5871   14.0620  -16.8438 S   0  5  0  0  0  0  0  0  0  0  0  0
  -29.9890   17.4367  -16.9474 C   0  0  0  0  0  0  0  0  0  0  0  0
  -30.9546   15.2803  -15.7085 H   0  0  0  0  0  0  0  0  0  0  0  0
  -29.2625   13.7297  -16.2590 H   0  0  0  0  0  0  0  0  0  0  0  0
  -28.0593   18.2120  -15.2764 H   0  0  0  0  0  0  0  0  0  0  0  0
  1  2  1  0  0  0  0
  2  3  1  0  0  0  0
  2  8  1  0  0  0  0
  2 10  1  0  0  0  0
  3  4  1  0  0  0  0
  3 11  1  0  0  0  0
  4  5  1  0  0  0  0
  4 12  1  0  0  0  0
  5  6  2  0  0  0  0
  5  9  1  0  0  0  0
  6  7  1  0  0  0  0
  6  8  1  0  0  0  0
  8 13  1  0  0  0  0
M  CHG  2   6   1   9  -1
M  END
>  <CHROM.0>
-57.82253117,-168.59167126,-68.18926581,-42.99237302,-58.97131125,-62.89770545
-67.93198459,-61.88967511,-168.79152979

>  <CHROM.1>
-28.57122636,15.88537395,-15.92210069,-2.35905815,-0.13317595,-2.86377724

>  <Name>
P111223242

>  <RI>
0

>  <Rbt.Current_Directory>
/home/fstefaniak/projects/zuza/docking/adenine/4TZX

>  <Rbt.Executable>
rbdock ($Id: //depot/dev/client3/rdock/2013.1/src/exe/rbdock.cxx#4 $)

>  <Rbt.Library>
libRbt.so (2013.1, Build901 2013/11/27)

>  <Rbt.Parameter_File>
/home/fstefaniak/progs/rDock//data/scripts/dock_solv.prm

>  <Rbt.Receptor>
4tzx.prm

>  <SCORE>
-44.6016

>  <SCORE.INTER>
-23.7299

>  <SCORE.INTER.CONST>
1

>  <SCORE.INTER.POLAR>
-2.78554

>  <SCORE.INTER.ROT>
0

>  <SCORE.INTER.SOLV>
15.5664

>  <SCORE.INTER.VDW>
-15.3236

>  <SCORE.INTER.norm>
-2.63666

>  <SCORE.INTRA>
0

>  <SCORE.INTRA.DIHEDRAL>
0

>  <SCORE.INTRA.DIHEDRAL.0>
0

>  <SCORE.INTRA.POLAR>
0

>  <SCORE.INTRA.POLAR.0>
0

>  <SCORE.INTRA.REPUL>
0

>  <SCORE.INTRA.REPUL.0>
0

>  <SCORE.INTRA.SOLV>
0

>  <SCORE.INTRA.SOLV.lig_0>
-30.2341

>  <SCORE.INTRA.VDW>
0

>  <SCORE.INTRA.VDW.0>
0

>  <SCORE.INTRA.norm>
0

>  <SCORE.RESTR>
0

>  <SCORE.RESTR.CAVITY>
0

>  <SCORE.RESTR.norm>
0

>  <SCORE.SYSTEM>
-20.8717

>  <SCORE.SYSTEM.CONST>
0

>  <SCORE.SYSTEM.DIHEDRAL>
5.2515

>  <SCORE.SYSTEM.POLAR>
-3.06055

>  <SCORE.SYSTEM.SOLV>
0.140783

>  <SCORE.SYSTEM.VDW>
-5.51006

>  <SCORE.SYSTEM.norm>
-2.31908

>  <SCORE.heavy>
9

>  <SCORE.norm>
-4.95573

$$$$
P111278486
 OpenBabel12072022113D
libRbt.so/2013.1/901 2013/11/27
 15 16  0  0  0  0  0  0  0  0999 V2000
  -28.5216   14.3809  -16.7329 C   0  0  0  0  0  0  0  0  0  0  0  0
  -28.1879   15.7767  -16.2262 C   0  0  0  0  0  0  0  0  0  0  0  0
  -28.6809   16.7368  -17.1641 O   0  0  0  0  0  0  0  0  0  0  0  0
  -29.2798   17.7727  -16.3894 C   0  0  1  0  0  0  0  0  0  0  0  0
  -30.6637   18.1420  -16.9632 C   0  0  1  0  0  0  0  0  0  0  0  0
  -31.5894   18.1362  -15.7518 C   0  0  0  0  0  0  0  0  0  0  0  0
  -31.0451   16.9730  -14.9342 C   0  0  1  0  0  0  0  0  0  0  0  0
  -29.5297   17.1814  -15.0140 C   0  0  1  0  0  0  0  0  0  0  0  0
  -28.8054   15.9582  -14.9511 O   0  0  0  0  0  0  0  0  0  0  0  0
  -31.5133   17.0405  -13.5949 O   0  0  0  0  0  0  0  0  0  0  0  0
  -30.7109   19.4134  -17.6834 N   0  0  0  0  0  0  0  0  0  0  0  0
  -26.6813   15.9618  -16.0752 C   0  0  0  0  0  0  0  0  0  0  0  0
  -32.4464   17.3144  -13.6269 H   0  0  0  0  0  0  0  0  0  0  0  0
  -30.0534   20.0632  -17.2485 H   0  0  0  0  0  0  0  0  0  0  0  0
  -31.6304   19.8438  -17.5904 H   0  0  0  0  0  0  0  0  0  0  0  0
  1  2  1  0  0  0  0
  2  3  1  0  0  0  0
  2  9  1  0  0  0  0
  2 12  1  0  0  0  0
  4  3  1  6  0  0  0
  4  8  1  0  0  0  0
  5  4  1  0  0  0  0
  5  6  1  0  0  0  0
  5 11  1  1  0  0  0
  6  7  1  0  0  0  0
  7 10  1  1  0  0  0
  7  8  1  0  0  0  0
  8  9  1  6  0  0  0
 10 13  1  0  0  0  0
 11 14  1  0  0  0  0
 11 15  1  0  0  0  0
M  END
>  <CHROM.0>
-56.58253775,177.83682283,-61.73333754,-43.36669668,-57.27328368,-61.36758997
-67.63797275,-60.91274196,-169.64878892

>  <CHROM.1>
-33.16800368,40.35765577,-29.61473546,16.95982053,-15.94048117,0.30054179
-0.61446731,2.23321183

>  <Name>
P111278486

>  <RI>
0

>  <Rbt.Current_Directory>
/home/fstefaniak/projects/zuza/docking/adenine/4TZX

>  <Rbt.Executable>
rbdock ($Id: //depot/dev/client3/rdock/2013.1/src/exe/rbdock.cxx#4 $)

>  <Rbt.Library>
libRbt.so (2013.1, Build901 2013/11/27)

>  <Rbt.Parameter_File>
/home/fstefaniak/progs/rDock//data/scripts/dock_solv.prm

>  <Rbt.Receptor>
4tzx.prm

>  <SCORE>
-43.0178

>  <SCORE.INTER>
-24.2735

>  <SCORE.INTER.CONST>
1

>  <SCORE.INTER.POLAR>
-3.61955

>  <SCORE.INTER.ROT>
1

>  <SCORE.INTER.SOLV>
13.2734

>  <SCORE.INTER.VDW>
-12.8083

>  <SCORE.INTER.norm>
-2.02279

>  <SCORE.INTRA>
2.12046

>  <SCORE.INTRA.DIHEDRAL>
2.27285

>  <SCORE.INTRA.DIHEDRAL.0>
0.664537

>  <SCORE.INTRA.POLAR>
0

>  <SCORE.INTRA.POLAR.0>
0

>  <SCORE.INTRA.REPUL>
0

>  <SCORE.INTRA.REPUL.0>
0

>  <SCORE.INTRA.SOLV>
-0.0325905

>  <SCORE.INTRA.SOLV.lig_0>
-12.0878

>  <SCORE.INTRA.VDW>
1.00033

>  <SCORE.INTRA.VDW.0>
-0.179276

>  <SCORE.INTRA.norm>
0.176705

>  <SCORE.RESTR>
0

>  <SCORE.RESTR.CAVITY>
0

>  <SCORE.RESTR.norm>
0

>  <SCORE.SYSTEM>
-20.8649

>  <SCORE.SYSTEM.CONST>
0

>  <SCORE.SYSTEM.DIHEDRAL>
4.24169

>  <SCORE.SYSTEM.POLAR>
-3.06071

>  <SCORE.SYSTEM.SOLV>
0.174268

>  <SCORE.SYSTEM.VDW>
-5.17953

>  <SCORE.SYSTEM.norm>
-1.73874

>  <SCORE.heavy>
12

>  <SCORE.norm>
-3.58482

$$$$
P111278486
 OpenBabel12072022113D
libRbt.so/2013.1/901 2013/11/27
 15 16  0  0  0  0  0  0  0  0999 V2000
  -26.3523   14.3442  -17.0075 C   0  0  0  0  0  0  0  0  0  0  0  0
  -27.7687   14.1536  -16.4845 C   0  0  0  0  0  0  0  0  0  0  0  0
  -27.9079   14.8766  -15.2588 O   0  0  0  0  0  0  0  0  0  0  0  0
  -29.1762   15.5238  -15.3249 C   0  0  1  0  0  0  0  0  0  0  0  0
  -29.0495   17.0007  -14.8967 C   0  0  1  0  0  0  0  0  0  0  0  0
  -29.7688   17.7761  -15.9948 C   0  0  0  0  0  0  0  0  0  0  0  0
  -29.3983   16.9878  -17.2435 C   0  0  1  0  0  0  0  0  0  0  0  0
  -29.5694   15.5344  -16.7909 C   0  0  1  0  0  0  0  0  0  0  0  0
  -28.6858   14.6447  -17.4633 O   0  0  0  0  0  0  0  0  0  0  0  0
  -30.2728   17.3089  -18.3157 O   0  0  0  0  0  0  0  0  0  0  0  0
  -29.5847   17.3041  -13.5705 N   0  0  0  0  0  0  0  0  0  0  0  0
  -28.0662   12.6800  -16.2257 C   0  0  0  0  0  0  0  0  0  0  0  0
  -29.9363   16.8583  -19.1097 H   0  0  0  0  0  0  0  0  0  0  0  0
  -29.6176   18.3183  -13.4525 H   0  0  0  0  0  0  0  0  0  0  0  0
  -28.9582   16.9594  -12.8439 H   0  0  0  0  0  0  0  0  0  0  0  0
  1  2  1  0  0  0  0
  2  3  1  0  0  0  0
  2  9  1  0  0  0  0
  2 12  1  0  0  0  0
  4  3  1  6  0  0  0
  4  8  1  0  0  0  0
  5  4  1  0  0  0  0
  5  6  1  0  0  0  0
  5 11  1  1  0  0  0
  6  7  1  0  0  0  0
  7 10  1  6  0  0  0
  7  8  1  0  0  0  0
  8  9  1  6  0  0  0
 10 13  1  0  0  0  0
 11 14  1  0  0  0  0
 11 15  1  0  0  0  0
M  END
>  <CHROM.0>
-61.73721845,-56.66629704,-66.70530301,-43.75146302,58.50345063,-52.64803488
-67.75048511,-58.14555978,-169.09562762

>  <CHROM.1>
-169.37188755,173.85740254,-28.79944241,15.68403442,-16.22849594,0.37677664
0.99380157,-1.80785280

>  <Name>
P111278486

>  <RI>
0

>  <Rbt.Current_Directory>
/home/fstefaniak/projects/zuza/docking/adenine/4TZX

>  <Rbt.Executable>
rbdock ($Id: //depot/dev/client3/rdock/2013.1/src/exe/rbdock.cxx#4 $)

>  <Rbt.Library>
libRbt.so (2013.1, Build901 2013/11/27)

>  <Rbt.Parameter_File>
/home/fstefaniak/progs/rDock//data/scripts/dock_solv.prm

>  <Rbt.Receptor>
4tzx.prm

>  <SCORE>
-42.5853

>  <SCORE.INTER>
-22.3724

>  <SCORE.INTER.CONST>
1

>  <SCORE.INTER.POLAR>
-3.14226

>  <SCORE.INTER.ROT>
1

>  <SCORE.INTER.SOLV>
13.0373

>  <SCORE.INTER.VDW>
-13.0532

>  <SCORE.INTER.norm>
-1.86437

>  <SCORE.INTRA>
-0.0683015

>  <SCORE.INTRA.DIHEDRAL>
-0.100239

>  <SCORE.INTRA.DIHEDRAL.0>
0.664537

>  <SCORE.INTRA.POLAR>
0

>  <SCORE.INTRA.POLAR.0>
0

>  <SCORE.INTRA.REPUL>
0

>  <SCORE.INTRA.REPUL.0>
0

>  <SCORE.INTRA.SOLV>
-0.016084

>  <SCORE.INTRA.SOLV.lig_0>
-12.0878

>  <SCORE.INTRA.VDW>
-0.0101402

>  <SCORE.INTRA.VDW.0>
-0.179276

>  <SCORE.INTRA.norm>
-0.00569179

>  <SCORE.RESTR>
0

>  <SCORE.RESTR.CAVITY>
0

>  <SCORE.RESTR.norm>
0

>  <SCORE.SYSTEM>
-20.1445

>  <SCORE.SYSTEM.CONST>
0

>  <SCORE.SYSTEM.DIHEDRAL>
4.65081

>  <SCORE.SYSTEM.POLAR>
-3.0577

>  <SCORE.SYSTEM.SOLV>
-0.0210226

>  <SCORE.SYSTEM.VDW>
-4.7806

>  <SCORE.SYSTEM.norm>
-1.67871

>  <SCORE.heavy>
12

>  <SCORE.norm>
-3.54877

$$$$
P111278486
 OpenBabel12072022113D
libRbt.so/2013.1/901 2013/11/27
 15 16  0  0  0  0  0  0  0  0999 V2000
  -26.3764   14.3543  -17.0685 C   0  0  0  0  0  0  0  0  0  0  0  0
  -27.7798   14.1572  -16.5136 C   0  0  0  0  0  0  0  0  0  0  0  0
  -27.8974   14.8872  -15.2898 O   0  0  0  0  0  0  0  0  0  0  0  0
  -29.1714   15.5251  -15.3324 C   0  0  1  0  0  0  0  0  0  0  0  0
  -29.0460   17.0056  -14.9166 C   0  0  1  0  0  0  0  0  0  0  0  0
  -29.7945   17.7688  -16.0037 C   0  0  0  0  0  0  0  0  0  0  0  0
  -29.4456   16.9749  -17.2550 C   0  0  1  0  0  0  0  0  0  0  0  0
  -29.5964   15.5234  -16.7895 C   0  0  1  0  0  0  0  0  0  0  0  0
  -28.7214   14.6354  -17.4753 O   0  0  0  0  0  0  0  0  0  0  0  0
  -30.3455   17.2829  -18.3100 O   0  0  0  0  0  0  0  0  0  0  0  0
  -29.5544   17.3140  -13.5809 N   0  0  0  0  0  0  0  0  0  0  0  0
  -28.0610   12.6833  -16.2389 C   0  0  0  0  0  0  0  0  0  0  0  0
  -30.2182   18.2207  -18.5357 H   0  0  0  0  0  0  0  0  0  0  0  0
  -29.5741   18.3285  -13.4619 H   0  0  0  0  0  0  0  0  0  0  0  0
  -28.9189   16.9621  -12.8657 H   0  0  0  0  0  0  0  0  0  0  0  0
  1  2  1  0  0  0  0
  2  3  1  0  0  0  0
  2  9  1  0  0  0  0
  2 12  1  0  0  0  0
  4  3  1  6  0  0  0
  4  8  1  0  0  0  0
  5  4  1  0  0  0  0
  5  6  1  0  0  0  0
  5 11  1  1  0  0  0
  6  7  1  0  0  0  0
  7 10  1  6  0  0  0
  7  8  1  0  0  0  0
  8  9  1  6  0  0  0
 10 13  1  0  0  0  0
 11 14  1  0  0  0  0
 11 15  1  0  0  0  0
M  END
>  <CHROM.0>
-60.15188576,-62.43083936,-66.43276412,-43.33829674,-58.95288739,-62.48009873
-67.12623182,-60.81194005,-169.14671156

>  <CHROM.1>
-170.49705778,64.32416743,-28.81665027,15.69005606,-16.24162951,0.39269184
0.98614832,-1.83562919

>  <Name>
P111278486

>  <RI>
0

>  <Rbt.Current_Directory>
/home/fstefaniak/projects/zuza/docking/adenine/4TZX

>  <Rbt.Executable>
rbdock ($Id: //depot/dev/client3/rdock/2013.1/src/exe/rbdock.cxx#4 $)

>  <Rbt.Library>
libRbt.so (2013.1, Build901 2013/11/27)

>  <Rbt.Parameter_File>
/home/fstefaniak/progs/rDock//data/scripts/dock_solv.prm

>  <Rbt.Receptor>
4tzx.prm

>  <SCORE>
-42.337

>  <SCORE.INTER>
-21.1395

>  <SCORE.INTER.CONST>
1

>  <SCORE.INTER.POLAR>
-2.98948

>  <SCORE.INTER.ROT>
1

>  <SCORE.INTER.SOLV>
13.0494

>  <SCORE.INTER.VDW>
-12.7445

>  <SCORE.INTER.norm>
-1.76162

>  <SCORE.INTRA>
0.0291049

>  <SCORE.INTRA.DIHEDRAL>
-0.23143

>  <SCORE.INTRA.DIHEDRAL.0>
0.664537

>  <SCORE.INTRA.POLAR>
0

>  <SCORE.INTRA.POLAR.0>
0

>  <SCORE.INTRA.REPUL>
0

>  <SCORE.INTRA.REPUL.0>
0

>  <SCORE.INTRA.SOLV>
-0.0383846

>  <SCORE.INTRA.SOLV.lig_0>
-12.0878

>  <SCORE.INTRA.VDW>
0.164012

>  <SCORE.INTRA.VDW.0>
-0.179276

>  <SCORE.INTRA.norm>
0.00242541

>  <SCORE.RESTR>
0

>  <SCORE.RESTR.CAVITY>
0

>  <SCORE.RESTR.norm>
0

>  <SCORE.SYSTEM>
-21.2266

>  <SCORE.SYSTEM.CONST>
0

>  <SCORE.SYSTEM.DIHEDRAL>
4.37404

>  <SCORE.SYSTEM.POLAR>
-3.04128

>  <SCORE.SYSTEM.SOLV>
0.178892

>  <SCORE.SYSTEM.VDW>
-5.53114

>  <SCORE.SYSTEM.norm>
-1.76889

>  <SCORE.heavy>
12

>  <SCORE.norm>
-3.52808

$$$$
P111922037
 OpenBabel12072022113D
libRbt.so/2013.1/901 2013/11/27
 14 14  0  0  0  0  0  0  0  0999 V2000
  -27.8572   14.1372  -15.9327 C   0  0  0  0  0  0  0  0  0  0  0  0
  -27.8908   15.6151  -16.2927 C   0  0  0  0  0  0  0  0  0  0  0  0
  -26.6015   16.2001  -16.1503 O   0  0  0  0  0  0  0  0  0  0  0  0
  -25.6214   15.6140  -16.9962 C   0  0  0  0  0  0  0  0  0  0  0  0
  -25.4390   14.1419  -16.6600 C   0  0  0  0  0  0  0  0  0  0  0  0
  -26.7670   13.3681  -16.7016 C   0  0  0  0  0  0  0  0  0  0  0  0
  -26.5597   11.9520  -16.1458 C   0  0  0  0  0  0  0  0  0  0  0  0
  -25.5985   11.9846  -14.9643 C   0  0  0  0  0  0  0  0  0  0  0  0
  -24.6795   11.1077  -15.0597 O   0  0  0  0  0  0  0  0  0  0  0  0
  -25.8504   12.8150  -14.0672 O   0  5  0  0  0  0  0  0  0  0  0  0
  -27.1790   13.2390  -18.1439 N   0  3  0  0  0  0  0  0  0  0  0  0
  -26.6273   12.6233  -18.7400 H   0  0  0  0  0  0  0  0  0  0  0  0
  -28.1834   13.0866  -18.2650 H   0  0  0  0  0  0  0  0  0  0  0  0
  -27.0585   14.2178  -18.5429 H   0  0  0  0  0  0  0  0  0  0  0  0
  1  2  1  0  0  0  0
  1  6  1  0  0  0  0
  2  3  1  0  0  0  0
  3  4  1  0  0  0  0
  4  5  1  0  0  0  0
  5  6  1  0  0  0  0
  6  7  1  0  0  0  0
  6 11  1  0  0  0  0
  7  8  1  0  0  0  0
  8  9  2  0  0  0  0
  8 10  1  0  0  0  0
 11 12  1  0  0  0  0
 11 13  1  0  0  0  0
 11 14  1  0  0  0  0
M  CHG  2  10  -1  11   1
M  END
>  <CHROM.0>
-56.58649134,-173.77407176,-64.55074208,-43.03822059,-175.54581663,-175.88454988
-67.61414975,-57.54305036,-168.10624405

>  <CHROM.1>
-84.64088381,-170.29951446,-131.36767129,-26.36530034,13.66017538,-16.11619657
2.37478705,-1.05491294,0.31461823

>  <Name>
P111922037

>  <RI>
0

>  <Rbt.Current_Directory>
/home/fstefaniak/projects/zuza/docking/adenine/4TZX

>  <Rbt.Executable>
rbdock ($Id: //depot/dev/client3/rdock/2013.1/src/exe/rbdock.cxx#4 $)

>  <Rbt.Library>
libRbt.so (2013.1, Build901 2013/11/27)

>  <Rbt.Parameter_File>
/home/fstefaniak/progs/rDock//data/scripts/dock_solv.prm

>  <Rbt.Receptor>
4tzx.prm

>  <SCORE>
-41.3108

>  <SCORE.INTER>
-20.8132

>  <SCORE.INTER.CONST>
1

>  <SCORE.INTER.POLAR>
-3.25573

>  <SCORE.INTER.ROT>
2

>  <SCORE.INTER.SOLV>
16.103

>  <SCORE.INTER.VDW>
-13.324

>  <SCORE.INTER.norm>
-1.89211

>  <SCORE.INTRA>
0.406721

>  <SCORE.INTRA.DIHEDRAL>
1.81679

>  <SCORE.INTRA.DIHEDRAL.0>
1.73063

>  <SCORE.INTRA.POLAR>
0.397051

>  <SCORE.INTRA.POLAR.0>
-0.397051

>  <SCORE.INTRA.REPUL>
0

>  <SCORE.INTRA.REPUL.0>
0

>  <SCORE.INTRA.SOLV>
-3.68505

>  <SCORE.INTRA.SOLV.lig_0>
-41.9535

>  <SCORE.INTRA.VDW>
-0.0091218

>  <SCORE.INTRA.VDW.0>
1.67419

>  <SCORE.INTRA.norm>
0.0369746

>  <SCORE.RESTR>
0

>  <SCORE.RESTR.CAVITY>
0

>  <SCORE.RESTR.norm>
0

>  <SCORE.SYSTEM>
-20.9043

>  <SCORE.SYSTEM.CONST>
0

>  <SCORE.SYSTEM.DIHEDRAL>
4.82438

>  <SCORE.SYSTEM.POLAR>
-3.07966

>  <SCORE.SYSTEM.SOLV>
-0.139724

>  <SCORE.SYSTEM.VDW>
-5.23221

>  <SCORE.SYSTEM.norm>
-1.90039

>  <SCORE.heavy>
11

>  <SCORE.norm>
-3.75552

$$$$
P111922037
 OpenBabel12072022113D
libRbt.so/2013.1/901 2013/11/27
 14 14  0  0  0  0  0  0  0  0999 V2000
  -26.6644   15.1146  -16.7129 C   0  0  0  0  0  0  0  0  0  0  0  0
  -25.2832   14.4814  -16.6332 C   0  0  0  0  0  0  0  0  0  0  0  0
  -25.2362   13.4975  -15.6062 O   0  0  0  0  0  0  0  0  0  0  0  0
  -26.1464   12.4256  -15.8121 C   0  0  0  0  0  0  0  0  0  0  0  0
  -27.5788   12.9369  -15.8195 C   0  0  0  0  0  0  0  0  0  0  0  0
  -27.7862   14.0676  -16.8406 C   0  0  0  0  0  0  0  0  0  0  0  0
  -29.1780   14.6878  -16.6520 C   0  0  0  0  0  0  0  0  0  0  0  0
  -29.0550   16.0969  -16.0862 C   0  0  0  0  0  0  0  0  0  0  0  0
  -28.7450   16.9539  -16.9762 O   0  0  0  0  0  0  0  0  0  0  0  0
  -29.2318   16.2183  -14.8566 O   0  5  0  0  0  0  0  0  0  0  0  0
  -27.7381   13.4588  -18.2168 N   0  3  0  0  0  0  0  0  0  0  0  0
  -26.9559   12.8426  -18.4342 H   0  0  0  0  0  0  0  0  0  0  0  0
  -28.6318   13.0585  -18.5129 H   0  0  0  0  0  0  0  0  0  0  0  0
  -27.6456   14.2916  -18.8723 H   0  0  0  0  0  0  0  0  0  0  0  0
  1  2  1  0  0  0  0
  1  6  1  0  0  0  0
  2  3  1  0  0  0  0
  3  4  1  0  0  0  0
  4  5  1  0  0  0  0
  5  6  1  0  0  0  0
  6  7  1  0  0  0  0
  6 11  1  0  0  0  0
  7  8  1  0  0  0  0
  8  9  2  0  0  0  0
  8 10  1  0  0  0  0
 11 12  1  0  0  0  0
 11 13  1  0  0  0  0
 11 14  1  0  0  0  0
M  CHG  2  10  -1  11   1
M  END
>  <CHROM.0>
-56.64050084,164.01883400,-33.25574639,-41.57651889,-54.66480330,-175.15460191
-58.95684185,-54.68304321,-167.90177251

>  <CHROM.1>
-12.62222493,70.29282297,78.89166820,-27.50274198,14.54244344,-16.40172205
-0.59330701,-0.51075832,0.65087663

>  <Name>
P111922037

>  <RI>
0

>  <Rbt.Current_Directory>
/home/fstefaniak/projects/zuza/docking/adenine/4TZX

>  <Rbt.Executable>
rbdock ($Id: //depot/dev/client3/rdock/2013.1/src/exe/rbdock.cxx#4 $)

>  <Rbt.Library>
libRbt.so (2013.1, Build901 2013/11/27)

>  <Rbt.Parameter_File>
/home/fstefaniak/progs/rDock//data/scripts/dock_solv.prm

>  <Rbt.Receptor>
4tzx.prm

>  <SCORE>
-41.2456

>  <SCORE.INTER>
-25.1167

>  <SCORE.INTER.CONST>
1

>  <SCORE.INTER.POLAR>
-4.59218

>  <SCORE.INTER.ROT>
2

>  <SCORE.INTER.SOLV>
21.5101

>  <SCORE.INTER.VDW>
-13.5405

>  <SCORE.INTER.norm>
-2.28333

>  <SCORE.INTRA>
2.62823

>  <SCORE.INTRA.DIHEDRAL>
4.53269

>  <SCORE.INTRA.DIHEDRAL.0>
1.73063

>  <SCORE.INTRA.POLAR>
0.397051

>  <SCORE.INTRA.POLAR.0>
-0.397051

>  <SCORE.INTRA.REPUL>
0

>  <SCORE.INTRA.REPUL.0>
0

>  <SCORE.INTRA.SOLV>
-3.71552

>  <SCORE.INTRA.SOLV.lig_0>
-41.9535

>  <SCORE.INTRA.VDW>
0.869675

>  <SCORE.INTRA.VDW.0>
1.67419

>  <SCORE.INTRA.norm>
0.23893

>  <SCORE.RESTR>
0

>  <SCORE.RESTR.CAVITY>
0

>  <SCORE.RESTR.norm>
0

>  <SCORE.SYSTEM>
-18.7571

>  <SCORE.SYSTEM.CONST>
0

>  <SCORE.SYSTEM.DIHEDRAL>
8.62145

>  <SCORE.SYSTEM.POLAR>
-3.39014

>  <SCORE.SYSTEM.SOLV>
0.134276

>  <SCORE.SYSTEM.VDW>
-4.12286

>  <SCORE.SYSTEM.norm>
-1.70519

>  <SCORE.heavy>
11

>  <SCORE.norm>
-3.7496

$$$$
P111922037
 OpenBabel12072022113D
libRbt.so/2013.1/901 2013/11/27
 14 14  0  0  0  0  0  0  0  0999 V2000
  -26.5757   14.9989  -16.4617 C   0  0  0  0  0  0  0  0  0  0  0  0
  -25.3538   14.1725  -16.0891 C   0  0  0  0  0  0  0  0  0  0  0  0
  -25.6809   13.2028  -15.1005 O   0  0  0  0  0  0  0  0  0  0  0  0
  -26.6660   12.2724  -15.5293 C   0  0  0  0  0  0  0  0  0  0  0  0
  -27.9711   12.9864  -15.8457 C   0  0  0  0  0  0  0  0  0  0  0  0
  -27.7788   14.1246  -16.8612 C   0  0  0  0  0  0  0  0  0  0  0  0
  -29.0732   14.9424  -16.9750 C   0  0  0  0  0  0  0  0  0  0  0  0
  -29.1869   15.9150  -15.8079 C   0  0  0  0  0  0  0  0  0  0  0  0
  -30.0296   15.5302  -14.9335 O   0  0  0  0  0  0  0  0  0  0  0  0
  -28.4892   16.9476  -15.8765 O   0  5  0  0  0  0  0  0  0  0  0  0
  -27.5105   13.5013  -18.2052 N   0  3  0  0  0  0  0  0  0  0  0  0
  -26.7291   12.8509  -18.2773 H   0  0  0  0  0  0  0  0  0  0  0  0
  -28.3529   13.1359  -18.6564 H   0  0  0  0  0  0  0  0  0  0  0  0
  -27.2662   14.3232  -18.8349 H   0  0  0  0  0  0  0  0  0  0  0  0
  1  2  1  0  0  0  0
  1  6  1  0  0  0  0
  2  3  1  0  0  0  0
  3  4  1  0  0  0  0
  4  5  1  0  0  0  0
  5  6  1  0  0  0  0
  6  7  1  0  0  0  0
  6 11  1  0  0  0  0
  7  8  1  0  0  0  0
  8  9  2  0  0  0  0
  8 10  1  0  0  0  0
 11 12  1  0  0  0  0
 11 13  1  0  0  0  0
 11 14  1  0  0  0  0
M  CHG  2  10  -1  11   1
M  END
>  <CHROM.0>
-61.98887502,-178.02505964,-71.78340816,-43.39675223,-54.96946367,-64.45312226
-170.66341658,-57.34478435,-168.84634525

>  <CHROM.1>
-43.29182802,63.74900240,-104.26646947,-27.65520480,14.41396157,-16.16308098
-0.47509986,-0.58925301,0.90442580

>  <Name>
P111922037

>  <RI>
0

>  <Rbt.Current_Directory>
/home/fstefaniak/projects/zuza/docking/adenine/4TZX

>  <Rbt.Executable>
rbdock ($Id: //depot/dev/client3/rdock/2013.1/src/exe/rbdock.cxx#4 $)

>  <Rbt.Library>
libRbt.so (2013.1, Build901 2013/11/27)

>  <Rbt.Parameter_File>
/home/fstefaniak/progs/rDock//data/scripts/dock_solv.prm

>  <Rbt.Receptor>
4tzx.prm

>  <SCORE>
-40.6671

>  <SCORE.INTER>
-18.8225

>  <SCORE.INTER.CONST>
1

>  <SCORE.INTER.POLAR>
-3.97427

>  <SCORE.INTER.ROT>
2

>  <SCORE.INTER.SOLV>
22.5212

>  <SCORE.INTER.VDW>
-11.7411

>  <SCORE.INTER.norm>
-1.71113

>  <SCORE.INTRA>
-1.3894

>  <SCORE.INTRA.DIHEDRAL>
0.907694

>  <SCORE.INTRA.DIHEDRAL.0>
1.73063

>  <SCORE.INTRA.POLAR>
0.397051

>  <SCORE.INTRA.POLAR.0>
-0.397051

>  <SCORE.INTRA.REPUL>
0

>  <SCORE.INTRA.REPUL.0>
0

>  <SCORE.INTRA.SOLV>
-4.4062

>  <SCORE.INTRA.SOLV.lig_0>
-41.9535

>  <SCORE.INTRA.VDW>
-0.990126

>  <SCORE.INTRA.VDW.0>
1.67419

>  <SCORE.INTRA.norm>
-0.126309

>  <SCORE.RESTR>
0

>  <SCORE.RESTR.CAVITY>
0

>  <SCORE.RESTR.norm>
0

>  <SCORE.SYSTEM>
-20.4552

>  <SCORE.SYSTEM.CONST>
0

>  <SCORE.SYSTEM.DIHEDRAL>
5.19063

>  <SCORE.SYSTEM.POLAR>
-3.03319

>  <SCORE.SYSTEM.SOLV>
0.127144

>  <SCORE.SYSTEM.VDW>
-5.29877

>  <SCORE.SYSTEM.norm>
-1.85956

>  <SCORE.heavy>
11

>  <SCORE.norm>
-3.69701

$$$$
P112142068
 OpenBabel12072022113D
libRbt.so/2013.1/901 2013/11/27
 18 18  0  0  0  0  0  0  0  0999 V2000
  -27.2315   12.8814  -17.5655 C   0  0  0  0  0  0  0  0  0  0  0  0
  -27.7048   14.1365  -16.8818 C   0  0  0  0  0  0  0  0  0  0  0  0
  -29.0763   14.2842  -16.6266 C   0  0  0  0  0  0  0  0  0  0  0  0
  -29.5716   15.4269  -15.9980 C   0  0  0  0  0  0  0  0  0  0  0  0
  -28.7098   16.4562  -15.6013 C   0  0  0  0  0  0  0  0  0  0  0  0
  -27.3367   16.2883  -15.8359 C   0  0  0  0  0  0  0  0  0  0  0  0
  -26.8160   15.1659  -16.5081 C   0  0  0  0  0  0  0  0  0  0  0  0
  -25.3389   15.0477  -16.7804 C   0  0  0  0  0  0  0  0  0  0  0  0
  -26.4964   17.2809  -15.3900 O   0  0  0  0  0  0  0  0  0  0  0  0
  -29.2799   17.6630  -14.8950 C   0  0  1  0  0  0  0  0  0  0  0  0
  -30.8336   17.6197  -14.7488 C   0  0  0  0  0  0  0  0  0  0  0  0
  -31.3581   16.6030  -14.2418 O   0  0  0  0  0  0  0  0  0  0  0  0
  -31.3448   18.6566  -15.2984 O   0  5  0  0  0  0  0  0  0  0  0  0
  -28.6704   17.8830  -13.5226 N   0  3  0  0  0  0  0  0  0  0  0  0
  -27.6753   18.0835  -13.7750 H   0  0  0  0  0  0  0  0  0  0  0  0
  -29.0284   18.7758  -13.1598 H   0  0  0  0  0  0  0  0  0  0  0  0
  -28.7608   17.1085  -12.8752 H   0  0  0  0  0  0  0  0  0  0  0  0
  -26.0963   17.6778  -16.1897 H   0  0  0  0  0  0  0  0  0  0  0  0
  1  2  1  0  0  0  0
  2  3  2  0  0  0  0
  2  7  1  0  0  0  0
  3  4  1  0  0  0  0
  4  5  2  0  0  0  0
  5  6  1  0  0  0  0
  5 10  1  0  0  0  0
  6  7  2  0  0  0  0
  6  9  1  0  0  0  0
  7  8  1  0  0  0  0
  9 18  1  0  0  0  0
 10 11  1  1  0  0  0
 10 14  1  0  0  0  0
 11 12  2  0  0  0  0
 11 13  1  0  0  0  0
 14 15  1  0  0  0  0
 14 16  1  0  0  0  0
 14 17  1  0  0  0  0
M  CHG  2  13  -1  14   1
M  END
>  <CHROM.0>
-61.72392109,-64.84723067,-73.24509023,49.88003583,-57.89247861,-62.74442755
-168.18355624,-61.27810179,-168.29133482

>  <CHROM.1>
-2.42336102,-115.02165349,52.44532664,64.26052402,-28.55595182,16.17094117
-15.65187761,0.82783468,-0.08153380,-2.61595431

>  <Name>
P112142068

>  <RI>
0

>  <Rbt.Current_Directory>
/home/fstefaniak/projects/zuza/docking/adenine/4TZX

>  <Rbt.Executable>
rbdock ($Id: //depot/dev/client3/rdock/2013.1/src/exe/rbdock.cxx#4 $)

>  <Rbt.Library>
libRbt.so (2013.1, Build901 2013/11/27)

>  <Rbt.Parameter_File>
/home/fstefaniak/progs/rDock//data/scripts/dock_solv.prm

>  <Rbt.Receptor>
4tzx.prm

>  <SCORE>
-46.2977

>  <SCORE.INTER>
-27.3182

>  <SCORE.INTER.CONST>
1

>  <SCORE.INTER.POLAR>
-5.17098

>  <SCORE.INTER.ROT>
2

>  <SCORE.INTER.SOLV>
27.9736

>  <SCORE.INTER.VDW>
-15.2334

>  <SCORE.INTER.norm>
-1.9513

>  <SCORE.INTRA>
-1.47881

>  <SCORE.INTRA.DIHEDRAL>
-0.236054

>  <SCORE.INTRA.DIHEDRAL.0>
6.00157

>  <SCORE.INTRA.POLAR>
0.249542

>  <SCORE.INTRA.POLAR.0>
-0.918696

>  <SCORE.INTRA.REPUL>
0

>  <SCORE.INTRA.REPUL.0>
0

>  <SCORE.INTRA.SOLV>
-2.09033

>  <SCORE.INTRA.SOLV.lig_0>
-46.2569

>  <SCORE.INTRA.VDW>
-1.16407

>  <SCORE.INTRA.VDW.0>
0.378239

>  <SCORE.INTRA.norm>
-0.10563

>  <SCORE.RESTR>
0

>  <SCORE.RESTR.CAVITY>
0

>  <SCORE.RESTR.norm>
0

>  <SCORE.SYSTEM>
-17.5007

>  <SCORE.SYSTEM.CONST>
0

>  <SCORE.SYSTEM.DIHEDRAL>
4.77991

>  <SCORE.SYSTEM.POLAR>
-2.44362

>  <SCORE.SYSTEM.SOLV>
0.0901386

>  <SCORE.SYSTEM.VDW>
-5.14507

>  <SCORE.SYSTEM.norm>
-1.25005

>  <SCORE.heavy>
14

>  <SCORE.norm>
-3.30698

$$$$
P112142068
 OpenBabel12072022113D
libRbt.so/2013.1/901 2013/11/27
 18 18  0  0  0  0  0  0  0  0999 V2000
  -27.4472   13.6119  -17.4343 C   0  0  0  0  0  0  0  0  0  0  0  0
  -28.0699   14.7437  -16.6610 C   0  0  0  0  0  0  0  0  0  0  0  0
  -29.4494   14.7038  -16.4085 C   0  0  0  0  0  0  0  0  0  0  0  0
  -30.0802   15.7259  -15.6989 C   0  0  0  0  0  0  0  0  0  0  0  0
  -29.3502   16.8184  -15.2161 C   0  0  0  0  0  0  0  0  0  0  0  0
  -27.9667   16.8369  -15.4496 C   0  0  0  0  0  0  0  0  0  0  0  0
  -27.3131   15.8414  -16.2008 C   0  0  0  0  0  0  0  0  0  0  0  0
  -25.8326   15.9246  -16.4671 C   0  0  0  0  0  0  0  0  0  0  0  0
  -27.2536   17.8867  -14.9208 O   0  0  0  0  0  0  0  0  0  0  0  0
  -30.0630   17.8889  -14.4250 C   0  0  1  0  0  0  0  0  0  0  0  0
  -31.6188   17.7923  -14.5121 C   0  0  0  0  0  0  0  0  0  0  0  0
  -32.2603   17.5252  -13.4715 O   0  0  0  0  0  0  0  0  0  0  0  0
  -31.9880   17.9132  -15.7318 O   0  5  0  0  0  0  0  0  0  0  0  0
  -29.6603   17.9047  -12.9618 N   0  3  0  0  0  0  0  0  0  0  0  0
  -29.3999   18.9101  -12.8365 H   0  0  0  0  0  0  0  0  0  0  0  0
  -30.5135   17.7883  -12.4003 H   0  0  0  0  0  0  0  0  0  0  0  0
  -28.9099   17.2723  -12.7084 H   0  0  0  0  0  0  0  0  0  0  0  0
  -27.1990   18.5613  -15.6273 H   0  0  0  0  0  0  0  0  0  0  0  0
  1  2  1  0  0  0  0
  2  3  2  0  0  0  0
  2  7  1  0  0  0  0
  3  4  1  0  0  0  0
  4  5  2  0  0  0  0
  5  6  1  0  0  0  0
  5 10  1  0  0  0  0
  6  7  2  0  0  0  0
  6  9  1  0  0  0  0
  7  8  1  0  0  0  0
  9 18  1  0  0  0  0
 10 11  1  1  0  0  0
 10 14  1  0  0  0  0
 11 12  2  0  0  0  0
 11 13  1  0  0  0  0
 14 15  1  0  0  0  0
 14 16  1  0  0  0  0
 14 17  1  0  0  0  0
M  CHG  2  13  -1  14   1
M  END
>  <CHROM.0>
-63.11098436,-175.82203675,-66.63011782,-43.50697954,-55.52297906,-61.80094876
-60.02390226,-61.08257118,-168.44824453

>  <CHROM.1>
-12.84514638,-93.84039333,114.67697930,127.62901190,-29.18391216,16.57372478
-15.33846539,0.72011288,-0.06124466,-2.46137382

>  <Name>
P112142068

>  <RI>
0

>  <Rbt.Current_Directory>
/home/fstefaniak/projects/zuza/docking/adenine/4TZX

>  <Rbt.Executable>
rbdock ($Id: //depot/dev/client3/rdock/2013.1/src/exe/rbdock.cxx#4 $)

>  <Rbt.Library>
libRbt.so (2013.1, Build901 2013/11/27)

>  <Rbt.Parameter_File>
/home/fstefaniak/progs/rDock//data/scripts/dock_solv.prm

>  <Rbt.Receptor>
4tzx.prm

>  <SCORE>
-43.7538

>  <SCORE.INTER>
-25.9239

>  <SCORE.INTER.CONST>
1

>  <SCORE.INTER.POLAR>
-4.78084

>  <SCORE.INTER.ROT>
2

>  <SCORE.INTER.SOLV>
29.514

>  <SCORE.INTER.VDW>
-16.1178

>  <SCORE.INTER.norm>
-1.85171

>  <SCORE.INTRA>
3.03746

>  <SCORE.INTRA.DIHEDRAL>
4.0319

>  <SCORE.INTRA.DIHEDRAL.0>
6.00157

>  <SCORE.INTRA.POLAR>
0.918696

>  <SCORE.INTRA.POLAR.0>
-0.918696

>  <SCORE.INTRA.REPUL>
0

>  <SCORE.INTRA.REPUL.0>
0

>  <SCORE.INTRA.SOLV>
-2.00784

>  <SCORE.INTRA.SOLV.lig_0>
-46.2569

>  <SCORE.INTRA.VDW>
-1.09814

>  <SCORE.INTRA.VDW.0>
0.378239

>  <SCORE.INTRA.norm>
0.216961

>  <SCORE.RESTR>
0

>  <SCORE.RESTR.CAVITY>
0

>  <SCORE.RESTR.norm>
0

>  <SCORE.SYSTEM>
-20.8674

>  <SCORE.SYSTEM.CONST>
0

>  <SCORE.SYSTEM.DIHEDRAL>
4.37404

>  <SCORE.SYSTEM.POLAR>
-3.03478

>  <SCORE.SYSTEM.SOLV>
0.165699

>  <SCORE.SYSTEM.VDW>
-5.30891

>  <SCORE.SYSTEM.norm>
-1.49053

>  <SCORE.heavy>
14

>  <SCORE.norm>
-3.12527

$$$$
P112142068
 OpenBabel12072022113D
libRbt.so/2013.1/901 2013/11/27
 18 18  0  0  0  0  0  0  0  0999 V2000
  -27.3230   12.5365  -17.2226 C   0  0  0  0  0  0  0  0  0  0  0  0
  -27.7387   13.8659  -16.6512 C   0  0  0  0  0  0  0  0  0  0  0  0
  -29.1005   14.0914  -16.4005 C   0  0  0  0  0  0  0  0  0  0  0  0
  -29.5433   15.3049  -15.8737 C   0  0  0  0  0  0  0  0  0  0  0  0
  -28.6371   16.3299  -15.5773 C   0  0  0  0  0  0  0  0  0  0  0  0
  -27.2742   16.0861  -15.8055 C   0  0  0  0  0  0  0  0  0  0  0  0
  -26.8058   14.8878  -16.3778 C   0  0  0  0  0  0  0  0  0  0  0  0
  -25.3376   14.6859  -16.6489 C   0  0  0  0  0  0  0  0  0  0  0  0
  -26.3905   17.0798  -15.4567 O   0  0  0  0  0  0  0  0  0  0  0  0
  -29.1511   17.6171  -14.9783 C   0  0  1  0  0  0  0  0  0  0  0  0
  -30.7093   17.6972  -14.9238 C   0  0  0  0  0  0  0  0  0  0  0  0
  -31.2716   18.7171  -15.3814 O   0  0  0  0  0  0  0  0  0  0  0  0
  -31.1685   16.6844  -14.2899 O   0  5  0  0  0  0  0  0  0  0  0  0
  -28.6040   17.8774  -13.5868 N   0  3  0  0  0  0  0  0  0  0  0  0
  -27.5993   18.0754  -13.8003 H   0  0  0  0  0  0  0  0  0  0  0  0
  -28.9807   18.7783  -13.2651 H   0  0  0  0  0  0  0  0  0  0  0  0
  -28.7206   17.1206  -12.9229 H   0  0  0  0  0  0  0  0  0  0  0  0
  -26.1662   17.5474  -16.2863 H   0  0  0  0  0  0  0  0  0  0  0  0
  1  2  1  0  0  0  0
  2  3  2  0  0  0  0
  2  7  1  0  0  0  0
  3  4  1  0  0  0  0
  4  5  2  0  0  0  0
  5  6  1  0  0  0  0
  5 10  1  0  0  0  0
  6  7  2  0  0  0  0
  6  9  1  0  0  0  0
  7  8  1  0  0  0  0
  9 18  1  0  0  0  0
 10 11  1  1  0  0  0
 10 14  1  0  0  0  0
 11 12  2  0  0  0  0
 11 13  1  0  0  0  0
 14 15  1  0  0  0  0
 14 16  1  0  0  0  0
 14 17  1  0  0  0  0
M  CHG  2  13  -1  14   1
M  END
>  <CHROM.0>
-60.94950294,34.39203801,-50.19310277,-42.98570516,60.03590924,-60.06417004
-67.20982272,59.91631004,-168.12918974

>  <CHROM.1>
-7.07177069,-100.14704906,-129.51428182,69.23932797,-28.50406987,16.03735991
-15.60498795,0.86886621,-0.06089048,-2.70095076

>  <Name>
P112142068

>  <RI>
0

>  <Rbt.Current_Directory>
/home/fstefaniak/projects/zuza/docking/adenine/4TZX

>  <Rbt.Executable>
rbdock ($Id: //depot/dev/client3/rdock/2013.1/src/exe/rbdock.cxx#4 $)

>  <Rbt.Library>
libRbt.so (2013.1, Build901 2013/11/27)

>  <Rbt.Parameter_File>
/home/fstefaniak/progs/rDock//data/scripts/dock_solv.prm

>  <Rbt.Receptor>
4tzx.prm

>  <SCORE>
-43.5255

>  <SCORE.INTER>
-26.4612

>  <SCORE.INTER.CONST>
1

>  <SCORE.INTER.POLAR>
-5.61709

>  <SCORE.INTER.ROT>
2

>  <SCORE.INTER.SOLV>
26.8716

>  <SCORE.INTER.VDW>
-12.8077

>  <SCORE.INTER.norm>
-1.89009

>  <SCORE.INTRA>
0.450589

>  <SCORE.INTRA.DIHEDRAL>
0.612898

>  <SCORE.INTRA.DIHEDRAL.0>
6.00157

>  <SCORE.INTRA.POLAR>
0.549828

>  <SCORE.INTRA.POLAR.0>
-0.918696

>  <SCORE.INTRA.REPUL>
0

>  <SCORE.INTRA.REPUL.0>
0

>  <SCORE.INTRA.SOLV>
-1.8903

>  <SCORE.INTRA.SOLV.lig_0>
-46.2569

>  <SCORE.INTRA.VDW>
-0.780126

>  <SCORE.INTRA.VDW.0>
0.378239

>  <SCORE.INTRA.norm>
0.0321849

>  <SCORE.RESTR>
0

>  <SCORE.RESTR.CAVITY>
0

>  <SCORE.RESTR.norm>
0

>  <SCORE.SYSTEM>
-17.5149

>  <SCORE.SYSTEM.CONST>
0

>  <SCORE.SYSTEM.DIHEDRAL>
7.43092

>  <SCORE.SYSTEM.POLAR>
-3.27278

>  <SCORE.SYSTEM.SOLV>
-0.0448268

>  <SCORE.SYSTEM.VDW>
-3.22933

>  <SCORE.SYSTEM.norm>
-1.25106

>  <SCORE.heavy>
14

>  <SCORE.norm>
-3.10896

$$$$
P112221919
 OpenBabel12072022113D
libRbt.so/2013.1/901 2013/11/27
 15 14  0  0  0  0  0  0  0  0999 V2000
  -30.8092   18.5649  -18.0370 C   0  0  0  0  0  0  0  0  0  0  0  0
  -30.7993   17.8548  -16.6877 C   0  0  1  0  0  0  0  0  0  0  0  0
  -29.4364   17.2636  -16.2732 C   0  0  1  0  0  0  0  0  0  0  0  0
  -29.1003   17.5020  -14.8164 C   0  0  0  0  0  0  0  0  0  0  0  0
  -29.9927   17.2506  -13.9083 N   0  0  0  0  0  0  0  0  0  0  0  0
  -29.4848   17.5457  -12.6353 O   0  0  0  0  0  0  0  0  0  0  0  0
  -27.8793   17.9824  -14.5326 O   0  0  0  0  0  0  0  0  0  0  0  0
  -29.4743   15.7842  -16.5898 N   0  3  0  0  0  0  0  0  0  0  0  0
  -28.8569   15.2773  -15.9393 H   0  0  0  0  0  0  0  0  0  0  0  0
  -30.4454   15.4562  -16.4586 H   0  0  0  0  0  0  0  0  0  0  0  0
  -29.1592   15.5780  -17.5429 H   0  0  0  0  0  0  0  0  0  0  0  0
  -31.1349   18.8275  -15.6792 O   0  0  0  0  0  0  0  0  0  0  0  0
  -29.4506   18.5212  -12.6096 H   0  0  0  0  0  0  0  0  0  0  0  0
  -27.3916   18.4069  -15.2559 H   0  0  0  0  0  0  0  0  0  0  0  0
  -31.2194   18.3524  -14.8253 H   0  0  0  0  0  0  0  0  0  0  0  0
  2  1  1  6  0  0  0
  2  3  1  0  0  0  0
  2 12  1  0  0  0  0
  3  4  1  1  0  0  0
  3  8  1  0  0  0  0
  4  5  2  0  0  0  0
  4  7  1  0  0  0  0
  5  6  1  0  0  0  0
  6 13  1  0  0  0  0
  7 14  1  0  0  0  0
  8  9  1  0  0  0  0
  8 10  1  0  0  0  0
  8 11  1  0  0  0  0
 12 15  1  0  0  0  0
M  CHG  1   8   1
M  END
>  <CHROM.0>
-61.36940843,-68.94412316,-70.74589012,-43.13751611,-60.72201288,-64.80471608
-166.22501530,-173.61811640,-168.01158564

>  <CHROM.1>
137.39619107,174.25087283,47.73225825,-151.20105272,18.73745862,71.77533174
-29.77388742,17.62063774,-15.42314298,2.11953421,0.77407089,-1.88172109

>  <Name>
P112221919

>  <RI>
0

>  <Rbt.Current_Directory>
/home/fstefaniak/projects/zuza/docking/adenine/4TZX

>  <Rbt.Executable>
rbdock ($Id: //depot/dev/client3/rdock/2013.1/src/exe/rbdock.cxx#4 $)

>  <Rbt.Library>
libRbt.so (2013.1, Build901 2013/11/27)

>  <Rbt.Parameter_File>
/home/fstefaniak/progs/rDock//data/scripts/dock_solv.prm

>  <Rbt.Receptor>
4tzx.prm

>  <SCORE>
-58.4384

>  <SCORE.INTER>
-39.4433

>  <SCORE.INTER.CONST>
1

>  <SCORE.INTER.POLAR>
-6.57503

>  <SCORE.INTER.ROT>
2

>  <SCORE.INTER.SOLV>
18.4612

>  <SCORE.INTER.VDW>
-15.4658

>  <SCORE.INTER.norm>
-4.38259

>  <SCORE.INTRA>
1.40916

>  <SCORE.INTRA.DIHEDRAL>
4.58379

>  <SCORE.INTRA.DIHEDRAL.0>
4.77047

>  <SCORE.INTRA.POLAR>
-0.278283

>  <SCORE.INTRA.POLAR.0>
-0.329506

>  <SCORE.INTRA.REPUL>
0

>  <SCORE.INTRA.REPUL.0>
0

>  <SCORE.INTRA.SOLV>
-1.21757

>  <SCORE.INTRA.SOLV.lig_0>
-33.5461

>  <SCORE.INTRA.VDW>
0.672214

>  <SCORE.INTRA.VDW.0>
0.214744

>  <SCORE.INTRA.norm>
0.156574

>  <SCORE.RESTR>
0

>  <SCORE.RESTR.CAVITY>
0

>  <SCORE.RESTR.norm>
0

>  <SCORE.SYSTEM>
-20.4042

>  <SCORE.SYSTEM.CONST>
0

>  <SCORE.SYSTEM.DIHEDRAL>
6.05243

>  <SCORE.SYSTEM.POLAR>
-3.02928

>  <SCORE.SYSTEM.SOLV>
0.010139

>  <SCORE.SYSTEM.VDW>
-5.52609

>  <SCORE.SYSTEM.norm>
-2.26714

>  <SCORE.heavy>
9

>  <SCORE.norm>
-6.49315

$$$$
P112221919
 OpenBabel12072022113D
libRbt.so/2013.1/901 2013/11/27
 15 14  0  0  0  0  0  0  0  0999 V2000
  -30.2511   18.2584  -19.0852 C   0  0  0  0  0  0  0  0  0  0  0  0
  -31.0331   18.0903  -17.7870 C   0  0  1  0  0  0  0  0  0  0  0  0
  -30.1734   17.7812  -16.5445 C   0  0  1  0  0  0  0  0  0  0  0  0
  -30.9945   17.5315  -15.2972 C   0  0  0  0  0  0  0  0  0  0  0  0
  -31.3720   18.5392  -14.5718 N   0  0  0  0  0  0  0  0  0  0  0  0
  -32.1091   18.0913  -13.4666 O   0  0  0  0  0  0  0  0  0  0  0  0
  -31.2849   16.2570  -14.9912 O   0  0  0  0  0  0  0  0  0  0  0  0
  -29.3134   16.5822  -16.8811 N   0  3  0  0  0  0  0  0  0  0  0  0
  -28.7265   16.7988  -17.6997 H   0  0  0  0  0  0  0  0  0  0  0  0
  -28.7033   16.3911  -16.0693 H   0  0  0  0  0  0  0  0  0  0  0  0
  -29.8688   15.7512  -17.1071 H   0  0  0  0  0  0  0  0  0  0  0  0
  -31.6970   19.3390  -17.5116 O   0  0  0  0  0  0  0  0  0  0  0  0
  -31.4349   17.7424  -12.8526 H   0  0  0  0  0  0  0  0  0  0  0  0
  -31.2168   15.6039  -15.7053 H   0  0  0  0  0  0  0  0  0  0  0  0
  -32.2375   19.5673  -18.2975 H   0  0  0  0  0  0  0  0  0  0  0  0
  2  1  1  6  0  0  0
  2  3  1  0  0  0  0
  2 12  1  0  0  0  0
  3  4  1  1  0  0  0
  3  8  1  0  0  0  0
  4  5  2  0  0  0  0
  4  7  1  0  0  0  0
  5  6  1  0  0  0  0
  6 13  1  0  0  0  0
  7 14  1  0  0  0  0
  8  9  1  0  0  0  0
  8 10  1  0  0  0  0
  8 11  1  0  0  0  0
 12 15  1  0  0  0  0
M  CHG  1   8   1
M  END
>  <CHROM.0>
-59.47818511,-62.68535731,-66.27164757,-40.82446041,-58.84988206,-57.34825645
-63.99214459,-58.47443346,-167.89199461

>  <CHROM.1>
-176.18338957,55.30554143,-85.64885383,59.00186208,-19.51336878,76.51002543
-30.92260269,17.80081838,-16.22118368,1.11956689,0.89517600,-1.09289901

>  <Name>
P112221919

>  <RI>
0

>  <Rbt.Current_Directory>
/home/fstefaniak/projects/zuza/docking/adenine/4TZX

>  <Rbt.Executable>
rbdock ($Id: //depot/dev/client3/rdock/2013.1/src/exe/rbdock.cxx#4 $)

>  <Rbt.Library>
libRbt.so (2013.1, Build901 2013/11/27)

>  <Rbt.Parameter_File>
/home/fstefaniak/progs/rDock//data/scripts/dock_solv.prm

>  <Rbt.Receptor>
4tzx.prm

>  <SCORE>
-57.8886

>  <SCORE.INTER>
-38.0106

>  <SCORE.INTER.CONST>
1

>  <SCORE.INTER.POLAR>
-5.87517

>  <SCORE.INTER.ROT>
2

>  <SCORE.INTER.SOLV>
18.5354

>  <SCORE.INTER.VDW>
-16.8683

>  <SCORE.INTER.norm>
-4.2234

>  <SCORE.INTRA>
1.08909

>  <SCORE.INTRA.DIHEDRAL>
-0.868623

>  <SCORE.INTRA.DIHEDRAL.0>
4.77047

>  <SCORE.INTRA.POLAR>
0.329506

>  <SCORE.INTRA.POLAR.0>
-0.329506

>  <SCORE.INTRA.REPUL>
0

>  <SCORE.INTRA.REPUL.0>
0

>  <SCORE.INTRA.SOLV>
-0.316781

>  <SCORE.INTRA.SOLV.lig_0>
-33.5461

>  <SCORE.INTRA.VDW>
0.561473

>  <SCORE.INTRA.VDW.0>
0.214744

>  <SCORE.INTRA.norm>
0.12101

>  <SCORE.RESTR>
0

>  <SCORE.RESTR.CAVITY>
0

>  <SCORE.RESTR.norm>
0

>  <SCORE.SYSTEM>
-20.9671

>  <SCORE.SYSTEM.CONST>
0

>  <SCORE.SYSTEM.DIHEDRAL>
4.72271

>  <SCORE.SYSTEM.POLAR>
-3.09094

>  <SCORE.SYSTEM.SOLV>
0.205895

>  <SCORE.SYSTEM.VDW>
-5.31779

>  <SCORE.SYSTEM.norm>
-2.32968

>  <SCORE.heavy>
9

>  <SCORE.norm>
-6.43207

$$$$
P112221919
 OpenBabel12072022113D
libRbt.so/2013.1/901 2013/11/27
 15 14  0  0  0  0  0  0  0  0999 V2000
  -30.4710   18.4862  -18.6573 C   0  0  0  0  0  0  0  0  0  0  0  0
  -30.9937   18.2687  -17.2414 C   0  0  1  0  0  0  0  0  0  0  0  0
  -29.9723   17.6648  -16.2561 C   0  0  1  0  0  0  0  0  0  0  0  0
  -30.4574   17.6592  -14.8220 C   0  0  0  0  0  0  0  0  0  0  0  0
  -31.5036   18.3571  -14.5016 N   0  0  0  0  0  0  0  0  0  0  0  0
  -31.7763   18.2208  -13.1332 O   0  0  0  0  0  0  0  0  0  0  0  0
  -29.7612   16.9306  -13.9350 O   0  0  0  0  0  0  0  0  0  0  0  0
  -29.6636   16.2623  -16.7336 N   0  3  0  0  0  0  0  0  0  0  0  0
  -28.9101   15.8607  -16.1572 H   0  0  0  0  0  0  0  0  0  0  0  0
  -30.5177   15.6923  -16.6177 H   0  0  0  0  0  0  0  0  0  0  0  0
  -29.3548   16.2387  -17.7105 H   0  0  0  0  0  0  0  0  0  0  0  0
  -31.3515   19.5569  -16.7047 O   0  0  0  0  0  0  0  0  0  0  0  0
  -32.7080   18.4989  -13.0442 H   0  0  0  0  0  0  0  0  0  0  0  0
  -28.9583   16.4910  -14.2565 H   0  0  0  0  0  0  0  0  0  0  0  0
  -32.0032   19.9622  -17.3154 H   0  0  0  0  0  0  0  0  0  0  0  0
  2  1  1  6  0  0  0
  2  3  1  0  0  0  0
  2 12  1  0  0  0  0
  3  4  1  1  0  0  0
  3  8  1  0  0  0  0
  4  5  2  0  0  0  0
  4  7  1  0  0  0  0
  5  6  1  0  0  0  0
  6 13  1  0  0  0  0
  7 14  1  0  0  0  0
  8  9  1  0  0  0  0
  8 10  1  0  0  0  0
  8 11  1  0  0  0  0
 12 15  1  0  0  0  0
M  CHG  1   8   1
M  END
>  <CHROM.0>
-59.35285270,57.57071361,-71.56766470,-42.95156168,-60.01450270,-66.94933947
-169.59211008,-55.00322103,-168.33849613

>  <CHROM.1>
171.28290964,56.50458271,-13.12931617,174.10617474,3.38774711,-160.96619977
-30.66741169,17.91895532,-15.74877516,1.38578543,0.88970622,-1.31467010

>  <Name>
P112221919

>  <RI>
0

>  <Rbt.Current_Directory>
/home/fstefaniak/projects/zuza/docking/adenine/4TZX

>  <Rbt.Executable>
rbdock ($Id: //depot/dev/client3/rdock/2013.1/src/exe/rbdock.cxx#4 $)

>  <Rbt.Library>
libRbt.so (2013.1, Build901 2013/11/27)

>  <Rbt.Parameter_File>
/home/fstefaniak/progs/rDock//data/scripts/dock_solv.prm

>  <Rbt.Receptor>
4tzx.prm

>  <SCORE>
-57.6493

>  <SCORE.INTER>
-38.7898

>  <SCORE.INTER.CONST>
1

>  <SCORE.INTER.POLAR>
-5.99568

>  <SCORE.INTER.ROT>
2

>  <SCORE.INTER.SOLV>
18.8834

>  <SCORE.INTER.VDW>
-17.1021

>  <SCORE.INTER.norm>
-4.30998

>  <SCORE.INTRA>
0.820703

>  <SCORE.INTRA.DIHEDRAL>
-1.34251

>  <SCORE.INTRA.DIHEDRAL.0>
4.77047

>  <SCORE.INTRA.POLAR>
0.329506

>  <SCORE.INTRA.POLAR.0>
-0.329506

>  <SCORE.INTRA.REPUL>
0

>  <SCORE.INTRA.REPUL.0>
0

>  <SCORE.INTRA.SOLV>
-0.605491

>  <SCORE.INTRA.SOLV.lig_0>
-33.5461

>  <SCORE.INTRA.VDW>
0.67438

>  <SCORE.INTRA.VDW.0>
0.214744

>  <SCORE.INTRA.norm>
0.0911892

>  <SCORE.RESTR>
0

>  <SCORE.RESTR.CAVITY>
0

>  <SCORE.RESTR.norm>
0

>  <SCORE.SYSTEM>
-19.6802

>  <SCORE.SYSTEM.CONST>
0

>  <SCORE.SYSTEM.DIHEDRAL>
5.46143

>  <SCORE.SYSTEM.POLAR>
-3.04834

>  <SCORE.SYSTEM.SOLV>
0.224244

>  <SCORE.SYSTEM.VDW>
-4.85421

>  <SCORE.SYSTEM.norm>
-2.18668

>  <SCORE.heavy>
9

>  <SCORE.norm>
-6.40547

$$$$
P112429950
 OpenBabel12072022113D
libRbt.so/2013.1/901 2013/11/27
 15 15  0  0  0  0  0  0  0  0999 V2000
  -27.4863   13.1602  -15.8329 C   0  0  0  0  0  0  0  0  0  0  0  0
  -26.2761   12.5163  -16.1099 C   0  0  0  0  0  0  0  0  0  0  0  0
  -25.2084   13.2559  -16.6014 C   0  0  0  0  0  0  0  0  0  0  0  0
  -25.3354   14.6213  -16.8169 C   0  0  0  0  0  0  0  0  0  0  0  0
  -26.5470   15.2635  -16.5401 C   0  0  0  0  0  0  0  0  0  0  0  0
  -27.6338   14.5392  -16.0466 C   0  0  0  0  0  0  0  0  0  0  0  0
  -28.8911   15.1042  -15.7402 N   0  0  0  0  0  0  0  0  0  0  0  0
  -29.4267   16.2860  -16.2323 C   0  0  0  0  0  0  0  0  0  0  0  0
  -28.8809   17.0598  -17.0142 O   0  0  0  0  0  0  0  0  0  0  0  0
  -30.7886   16.6212  -15.6642 C   0  0  0  0  0  0  0  0  0  0  0  0
  -31.1240   18.0239  -15.8991 C   0  0  0  0  0  0  0  0  0  0  0  0
  -31.4179   19.1227  -16.1295 N   0  0  0  0  0  0  0  0  0  0  0  0
  -24.0101   12.6744  -16.8874 O   0  0  0  0  0  0  0  0  0  0  0  0
  -29.4722   14.5475  -15.1234 H   0  0  0  0  0  0  0  0  0  0  0  0
  -23.2973   13.2627  -16.5897 H   0  0  0  0  0  0  0  0  0  0  0  0
  1  2  2  0  0  0  0
  1  6  1  0  0  0  0
  2  3  1  0  0  0  0
  3  4  2  0  0  0  0
  3 13  1  0  0  0  0
  4  5  1  0  0  0  0
  5  6  2  0  0  0  0
  6  7  1  0  0  0  0
  7  8  1  0  0  0  0
  7 14  1  0  0  0  0
  8  9  2  0  0  0  0
  8 10  1  0  0  0  0
 10 11  1  0  0  0  0
 11 12  3  0  0  0  0
 13 15  1  0  0  0  0
M  END
>  <CHROM.0>
-59.37730134,-63.71928770,-66.31463276,-42.23334776,57.68916388,-61.28643114
-67.29719631,-59.62474675,-169.34955181

>  <CHROM.1>
-139.10037927,-157.90223378,163.36528624,-27.88911533,15.24397334,-16.28315389
0.62780726,-0.33050853,2.82432580

>  <Name>
P112429950

>  <RI>
0

>  <Rbt.Current_Directory>
/home/fstefaniak/projects/zuza/docking/adenine/4TZX

>  <Rbt.Executable>
rbdock ($Id: //depot/dev/client3/rdock/2013.1/src/exe/rbdock.cxx#4 $)

>  <Rbt.Library>
libRbt.so (2013.1, Build901 2013/11/27)

>  <Rbt.Parameter_File>
/home/fstefaniak/progs/rDock//data/scripts/dock_solv.prm

>  <Rbt.Receptor>
4tzx.prm

>  <SCORE>
-46.9135

>  <SCORE.INTER>
-28.5688

>  <SCORE.INTER.CONST>
1

>  <SCORE.INTER.POLAR>
-2.88036

>  <SCORE.INTER.ROT>
2

>  <SCORE.INTER.SOLV>
12.129

>  <SCORE.INTER.VDW>
-18.421

>  <SCORE.INTER.norm>
-2.1976

>  <SCORE.INTRA>
1.98142

>  <SCORE.INTRA.DIHEDRAL>
3.66354

>  <SCORE.INTRA.DIHEDRAL.0>
1.36142

>  <SCORE.INTRA.POLAR>
0

>  <SCORE.INTRA.POLAR.0>
0

>  <SCORE.INTRA.REPUL>
0

>  <SCORE.INTRA.REPUL.0>
0

>  <SCORE.INTRA.SOLV>
-0.144055

>  <SCORE.INTRA.SOLV.lig_0>
-18.2446

>  <SCORE.INTRA.VDW>
0.221681

>  <SCORE.INTRA.VDW.0>
-0.175871

>  <SCORE.INTRA.norm>
0.152417

>  <SCORE.RESTR>
0

>  <SCORE.RESTR.CAVITY>
0

>  <SCORE.RESTR.norm>
0

>  <SCORE.SYSTEM>
-20.3261

>  <SCORE.SYSTEM.CONST>
0

>  <SCORE.SYSTEM.DIHEDRAL>
4.55473

>  <SCORE.SYSTEM.POLAR>
-3.05281

>  <SCORE.SYSTEM.SOLV>
-0.0320594

>  <SCORE.SYSTEM.VDW>
-4.88228

>  <SCORE.SYSTEM.norm>
-1.56355

>  <SCORE.heavy>
13

>  <SCORE.norm>
-3.60873

$$$$
P112429950
 OpenBabel12072022113D
libRbt.so/2013.1/901 2013/11/27
 15 15  0  0  0  0  0  0  0  0999 V2000
  -30.7820   16.1704  -15.4075 C   0  0  0  0  0  0  0  0  0  0  0  0
  -31.3495   17.4395  -15.5602 C   0  0  0  0  0  0  0  0  0  0  0  0
  -30.7893   18.3312  -16.4655 C   0  0  0  0  0  0  0  0  0  0  0  0
  -29.6774   17.9714  -17.2146 C   0  0  0  0  0  0  0  0  0  0  0  0
  -29.1106   16.7018  -17.0598 C   0  0  0  0  0  0  0  0  0  0  0  0
  -29.6567   15.7900  -16.1544 C   0  0  0  0  0  0  0  0  0  0  0  0
  -29.1508   14.4902  -15.9340 N   0  0  0  0  0  0  0  0  0  0  0  0
  -27.9997   13.9314  -16.4710 C   0  0  0  0  0  0  0  0  0  0  0  0
  -27.2263   14.4754  -17.2546 O   0  0  0  0  0  0  0  0  0  0  0  0
  -27.7691   12.4944  -16.0566 C   0  0  0  0  0  0  0  0  0  0  0  0
  -26.7255   12.4034  -15.0379 C   0  0  0  0  0  0  0  0  0  0  0  0
  -25.9352   12.3307  -14.1912 N   0  0  0  0  0  0  0  0  0  0  0  0
  -31.3049   19.5787  -16.6493 O   0  0  0  0  0  0  0  0  0  0  0  0
  -29.6776   13.9320  -15.2716 H   0  0  0  0  0  0  0  0  0  0  0  0
  -30.5815   20.1874  -16.8705 H   0  0  0  0  0  0  0  0  0  0  0  0
  1  2  2  0  0  0  0
  1  6  1  0  0  0  0
  2  3  1  0  0  0  0
  3  4  2  0  0  0  0
  3 13  1  0  0  0  0
  4  5  1  0  0  0  0
  5  6  2  0  0  0  0
  6  7  1  0  0  0  0
  7  8  1  0  0  0  0
  7 14  1  0  0  0  0
  8  9  2  0  0  0  0
  8 10  1  0  0  0  0
 10 11  1  0  0  0  0
 11 12  3  0  0  0  0
 13 15  1  0  0  0  0
M  END
>  <CHROM.0>
-59.47075912,56.90328634,-66.20523402,-44.10321115,-55.51716259,-57.83520609
-63.73278531,-54.80585483,-168.67906851

>  <CHROM.1>
147.82123800,-174.62684209,-103.75808308,-29.03852682,15.58269820,-16.12974205
2.36119733,0.64961475,-0.73001413

>  <Name>
P112429950

>  <RI>
0

>  <Rbt.Current_Directory>
/home/fstefaniak/projects/zuza/docking/adenine/4TZX

>  <Rbt.Executable>
rbdock ($Id: //depot/dev/client3/rdock/2013.1/src/exe/rbdock.cxx#4 $)

>  <Rbt.Library>
libRbt.so (2013.1, Build901 2013/11/27)

>  <Rbt.Parameter_File>
/home/fstefaniak/progs/rDock//data/scripts/dock_solv.prm

>  <Rbt.Receptor>
4tzx.prm

>  <SCORE>
-45.3893

>  <SCORE.INTER>
-25.8353

>  <SCORE.INTER.CONST>
1

>  <SCORE.INTER.POLAR>
-2.86283

>  <SCORE.INTER.ROT>
2

>  <SCORE.INTER.SOLV>
13.6172

>  <SCORE.INTER.VDW>
-17.1532

>  <SCORE.INTER.norm>
-1.98733

>  <SCORE.INTRA>
0.626505

>  <SCORE.INTRA.DIHEDRAL>
1.4488

>  <SCORE.INTRA.DIHEDRAL.0>
1.36142

>  <SCORE.INTRA.POLAR>
0

>  <SCORE.INTRA.POLAR.0>
0

>  <SCORE.INTRA.REPUL>
0

>  <SCORE.INTRA.REPUL.0>
0

>  <SCORE.INTRA.SOLV>
-0.208235

>  <SCORE.INTRA.SOLV.lig_0>
-18.2446

>  <SCORE.INTRA.VDW>
0.00622493

>  <SCORE.INTRA.VDW.0>
-0.175871

>  <SCORE.INTRA.norm>
0.0481927

>  <SCORE.RESTR>
0

>  <SCORE.RESTR.CAVITY>
0

>  <SCORE.RESTR.norm>
0

>  <SCORE.SYSTEM>
-20.1805

>  <SCORE.SYSTEM.CONST>
0

>  <SCORE.SYSTEM.DIHEDRAL>
4.35067

>  <SCORE.SYSTEM.POLAR>
-3.05423

>  <SCORE.SYSTEM.SOLV>
0.283593

>  <SCORE.SYSTEM.VDW>
-4.81761

>  <SCORE.SYSTEM.norm>
-1.55234

>  <SCORE.heavy>
13

>  <SCORE.norm>
-3.49148

$$$$
P112429950
 OpenBabel12072022113D
libRbt.so/2013.1/901 2013/11/27
 15 15  0  0  0  0  0  0  0  0999 V2000
  -26.1866   14.8143  -16.8990 C   0  0  0  0  0  0  0  0  0  0  0  0
  -25.2305   13.8158  -16.6878 C   0  0  0  0  0  0  0  0  0  0  0  0
  -25.6042   12.6390  -16.0521 C   0  0  0  0  0  0  0  0  0  0  0  0
  -26.9127   12.4502  -15.6291 C   0  0  0  0  0  0  0  0  0  0  0  0
  -27.8676   13.4505  -15.8405 C   0  0  0  0  0  0  0  0  0  0  0  0
  -27.5135   14.6420  -16.4764 C   0  0  0  0  0  0  0  0  0  0  0  0
  -28.4099   15.7031  -16.7305 N   0  0  0  0  0  0  0  0  0  0  0  0
  -29.4200   16.1701  -15.9015 C   0  0  0  0  0  0  0  0  0  0  0  0
  -29.7202   15.7201  -14.7990 O   0  0  0  0  0  0  0  0  0  0  0  0
  -30.2254   17.3026  -16.5005 C   0  0  0  0  0  0  0  0  0  0  0  0
  -31.0728   17.9343  -15.4914 C   0  0  0  0  0  0  0  0  0  0  0  0
  -31.7076   18.4733  -14.6832 N   0  0  0  0  0  0  0  0  0  0  0  0
  -24.7096   11.6376  -15.8226 O   0  0  0  0  0  0  0  0  0  0  0  0
  -28.2545   16.1956  -17.6030 H   0  0  0  0  0  0  0  0  0  0  0  0
  -23.8386   11.9140  -16.1511 H   0  0  0  0  0  0  0  0  0  0  0  0
  1  2  2  0  0  0  0
  1  6  1  0  0  0  0
  2  3  1  0  0  0  0
  3  4  2  0  0  0  0
  3 13  1  0  0  0  0
  4  5  1  0  0  0  0
  5  6  2  0  0  0  0
  6  7  1  0  0  0  0
  7  8  1  0  0  0  0
  7 14  1  0  0  0  0
  8  9  2  0  0  0  0
  8 10  1  0  0  0  0
 10 11  1  0  0  0  0
 11 12  3  0  0  0  0
 13 15  1  0  0  0  0
M  END
>  <CHROM.0>
-61.35811004,-65.94341944,-71.94199645,-42.67341070,-174.16856346,-66.78761190
-172.99663138,-57.58313117,-169.11307699

>  <CHROM.1>
1.21150655,-141.14733694,-167.98196419,-28.02058485,14.95488383,-15.95079187
-0.52851266,0.56740830,-0.60398392

>  <Name>
P112429950

>  <RI>
0

>  <Rbt.Current_Directory>
/home/fstefaniak/projects/zuza/docking/adenine/4TZX

>  <Rbt.Executable>
rbdock ($Id: //depot/dev/client3/rdock/2013.1/src/exe/rbdock.cxx#4 $)

>  <Rbt.Library>
libRbt.so (2013.1, Build901 2013/11/27)

>  <Rbt.Parameter_File>
/home/fstefaniak/progs/rDock//data/scripts/dock_solv.prm

>  <Rbt.Receptor>
4tzx.prm

>  <SCORE>
-45.3285

>  <SCORE.INTER>
-27.0109

>  <SCORE.INTER.CONST>
1

>  <SCORE.INTER.POLAR>
-2.79659

>  <SCORE.INTER.ROT>
2

>  <SCORE.INTER.SOLV>
10.022

>  <SCORE.INTER.VDW>
-16.9593

>  <SCORE.INTER.norm>
-2.07776

>  <SCORE.INTRA>
2.37899

>  <SCORE.INTRA.DIHEDRAL>
4.6504

>  <SCORE.INTRA.DIHEDRAL.0>
1.36142

>  <SCORE.INTRA.POLAR>
0

>  <SCORE.INTRA.POLAR.0>
0

>  <SCORE.INTRA.REPUL>
0

>  <SCORE.INTRA.REPUL.0>
0

>  <SCORE.INTRA.SOLV>
-0.167526

>  <SCORE.INTRA.SOLV.lig_0>
-18.2446

>  <SCORE.INTRA.VDW>
0.137553

>  <SCORE.INTRA.VDW.0>
-0.175871

>  <SCORE.INTRA.norm>
0.182999

>  <SCORE.RESTR>
0

>  <SCORE.RESTR.CAVITY>
0

>  <SCORE.RESTR.norm>
0

>  <SCORE.SYSTEM>
-20.6966

>  <SCORE.SYSTEM.CONST>
0

>  <SCORE.SYSTEM.DIHEDRAL>
5.40834

>  <SCORE.SYSTEM.POLAR>
-3.03157

>  <SCORE.SYSTEM.SOLV>
-0.0437848

>  <SCORE.SYSTEM.VDW>
-5.48069

>  <SCORE.SYSTEM.norm>
-1.59205

>  <SCORE.heavy>
13

>  <SCORE.norm>
-3.48681

$$$$
P114849488
 OpenBabel12072022113D
libRbt.so/2013.1/901 2013/11/27
 13 12  0  0  0  0  0  0  0  0999 V2000
  -30.3207   18.7587  -19.4739 C   0  0  0  0  0  0  0  0  0  0  0  0
  -29.9220   17.4560  -18.2804 S   0  0  0  0  0  0  0  0  0  0  0  0
  -30.9048   18.0269  -16.9009 C   0  0  0  0  0  0  0  0  0  0  0  0
  -30.6191   17.5250  -15.6704 C   0  0  0  0  0  0  0  0  0  0  0  0
  -31.3509   17.9267  -14.5198 C   0  0  0  0  0  0  0  0  0  0  0  0
  -31.9689   18.2832  -13.6048 N   0  0  0  0  0  0  0  0  0  0  0  0
  -29.5237   16.4982  -15.4332 C   0  0  0  0  0  0  0  0  0  0  0  0
  -28.6149   15.6465  -15.2365 N   0  0  0  0  0  0  0  0  0  0  0  0
  -31.9318   18.9587  -17.1184 N   0  0  0  0  0  0  0  0  0  0  0  0
  -32.9331   18.7306  -18.0752 N   0  0  0  0  0  0  0  0  0  0  0  0
  -31.7109   19.9433  -16.9324 H   0  0  0  0  0  0  0  0  0  0  0  0
  -32.7461   17.8617  -18.5858 H   0  0  0  0  0  0  0  0  0  0  0  0
  -32.9200   19.4605  -18.7947 H   0  0  0  0  0  0  0  0  0  0  0  0
  1  2  1  0  0  0  0
  2  3  1  0  0  0  0
  3  4  2  0  0  0  0
  3  9  1  0  0  0  0
  4  5  1  0  0  0  0
  4  7  1  0  0  0  0
  5  6  3  0  0  0  0
  7  8  3  0  0  0  0
  9 10  1  0  0  0  0
  9 11  1  0  0  0  0
 10 12  1  0  0  0  0
 10 13  1  0  0  0  0
M  END
>  <CHROM.0>
-58.08586652,-62.61969085,-71.69969789,-42.14701757,-176.21569573,-60.40324557
-169.77360109,-59.45047194,-169.00235422

>  <CHROM.1>
-162.78299954,53.37846674,-3.80466282,-30.74507299,17.78999915,-16.74235945
-1.73633850,-0.61340594,1.78061492

>  <Name>
P114849488

>  <RI>
0

>  <Rbt.Current_Directory>
/home/fstefaniak/projects/zuza/docking/adenine/4TZX

>  <Rbt.Executable>
rbdock ($Id: //depot/dev/client3/rdock/2013.1/src/exe/rbdock.cxx#4 $)

>  <Rbt.Library>
libRbt.so (2013.1, Build901 2013/11/27)

>  <Rbt.Parameter_File>
/home/fstefaniak/progs/rDock//data/scripts/dock_solv.prm

>  <Rbt.Receptor>
4tzx.prm

>  <SCORE>
-50.4193

>  <SCORE.INTER>
-29.6091

>  <SCORE.INTER.CONST>
1

>  <SCORE.INTER.POLAR>
-3.84378

>  <SCORE.INTER.ROT>
3

>  <SCORE.INTER.SOLV>
14.5408

>  <SCORE.INTER.VDW>
-17.3737

>  <SCORE.INTER.norm>
-2.96091

>  <SCORE.INTRA>
-0.13576

>  <SCORE.INTRA.DIHEDRAL>
-2.6792

>  <SCORE.INTRA.DIHEDRAL.0>
4.7079

>  <SCORE.INTRA.POLAR>
0

>  <SCORE.INTRA.POLAR.0>
0

>  <SCORE.INTRA.REPUL>
0

>  <SCORE.INTRA.REPUL.0>
0

>  <SCORE.INTRA.SOLV>
0.16993

>  <SCORE.INTRA.SOLV.lig_0>
-17.6837

>  <SCORE.INTRA.VDW>
1.11887

>  <SCORE.INTRA.VDW.0>
-1.13316

>  <SCORE.INTRA.norm>
-0.013576

>  <SCORE.RESTR>
0

>  <SCORE.RESTR.CAVITY>
0

>  <SCORE.RESTR.norm>
0

>  <SCORE.SYSTEM>
-20.6744

>  <SCORE.SYSTEM.CONST>
0

>  <SCORE.SYSTEM.DIHEDRAL>
5.26697

>  <SCORE.SYSTEM.POLAR>
-3.05681

>  <SCORE.SYSTEM.SOLV>
-0.0199267

>  <SCORE.SYSTEM.VDW>
-5.3426

>  <SCORE.SYSTEM.norm>
-2.06744

>  <SCORE.heavy>
10

>  <SCORE.norm>
-5.04193

$$$$
P114849488
 OpenBabel12072022113D
libRbt.so/2013.1/901 2013/11/27
 13 12  0  0  0  0  0  0  0  0999 V2000
  -30.3043   18.7417  -19.4642 C   0  0  0  0  0  0  0  0  0  0  0  0
  -29.9158   17.4462  -18.2596 S   0  0  0  0  0  0  0  0  0  0  0  0
  -30.8890   18.0400  -16.8830 C   0  0  0  0  0  0  0  0  0  0  0  0
  -30.5964   17.5567  -15.6467 C   0  0  0  0  0  0  0  0  0  0  0  0
  -31.3202   17.9774  -14.4978 C   0  0  0  0  0  0  0  0  0  0  0  0
  -31.9318   18.3491  -13.5847 N   0  0  0  0  0  0  0  0  0  0  0  0
  -29.5010   16.5320  -15.4005 C   0  0  0  0  0  0  0  0  0  0  0  0
  -28.5923   15.6819  -15.1963 N   0  0  0  0  0  0  0  0  0  0  0  0
  -31.9160   18.9700  -17.1084 N   0  0  0  0  0  0  0  0  0  0  0  0
  -32.9193   18.7321  -18.0606 N   0  0  0  0  0  0  0  0  0  0  0  0
  -31.6941   19.9565  -16.9336 H   0  0  0  0  0  0  0  0  0  0  0  0
  -32.7334   17.8582  -18.5628 H   0  0  0  0  0  0  0  0  0  0  0  0
  -32.9080   19.4547  -18.7875 H   0  0  0  0  0  0  0  0  0  0  0  0
  1  2  1  0  0  0  0
  2  3  1  0  0  0  0
  3  4  2  0  0  0  0
  3  9  1  0  0  0  0
  4  5  1  0  0  0  0
  4  7  1  0  0  0  0
  5  6  3  0  0  0  0
  7  8  3  0  0  0  0
  9 10  1  0  0  0  0
  9 11  1  0  0  0  0
 10 12  1  0  0  0  0
 10 13  1  0  0  0  0
M  END
>  <CHROM.0>
-55.93723947,-63.17473160,-70.30504809,-42.31390225,-54.55029132,-66.56322990
-166.55837364,-58.55304833,-168.88752969

>  <CHROM.1>
-162.13747482,53.01365953,-3.86539293,-30.72666426,17.80677514,-16.72170116
-1.74174977,-0.61641160,1.76298874

>  <Name>
P114849488

>  <RI>
0

>  <Rbt.Current_Directory>
/home/fstefaniak/projects/zuza/docking/adenine/4TZX

>  <Rbt.Executable>
rbdock ($Id: //depot/dev/client3/rdock/2013.1/src/exe/rbdock.cxx#4 $)

>  <Rbt.Library>
libRbt.so (2013.1, Build901 2013/11/27)

>  <Rbt.Parameter_File>
/home/fstefaniak/progs/rDock//data/scripts/dock_solv.prm

>  <Rbt.Receptor>
4tzx.prm

>  <SCORE>
-50.2268

>  <SCORE.INTER>
-29.6392

>  <SCORE.INTER.CONST>
1

>  <SCORE.INTER.POLAR>
-3.87465

>  <SCORE.INTER.ROT>
3

>  <SCORE.INTER.SOLV>
14.551

>  <SCORE.INTER.VDW>
-17.2943

>  <SCORE.INTER.norm>
-2.96392

>  <SCORE.INTRA>
-0.151592

>  <SCORE.INTRA.DIHEDRAL>
-2.652

>  <SCORE.INTRA.DIHEDRAL.0>
4.7079

>  <SCORE.INTRA.POLAR>
0

>  <SCORE.INTRA.POLAR.0>
0

>  <SCORE.INTRA.REPUL>
0

>  <SCORE.INTRA.REPUL.0>
0

>  <SCORE.INTRA.SOLV>
0.168793

>  <SCORE.INTRA.SOLV.lig_0>
-17.6837

>  <SCORE.INTRA.VDW>
1.09001

>  <SCORE.INTRA.VDW.0>
-1.13316

>  <SCORE.INTRA.norm>
-0.0151592

>  <SCORE.RESTR>
0

>  <SCORE.RESTR.CAVITY>
0

>  <SCORE.RESTR.norm>
0

>  <SCORE.SYSTEM>
-20.436

>  <SCORE.SYSTEM.CONST>
0

>  <SCORE.SYSTEM.DIHEDRAL>
5.79086

>  <SCORE.SYSTEM.POLAR>
-3.09135

>  <SCORE.SYSTEM.SOLV>
0.165365

>  <SCORE.SYSTEM.VDW>
-5.30493

>  <SCORE.SYSTEM.norm>
-2.0436

>  <SCORE.heavy>
10

>  <SCORE.norm>
-5.02268

$$$$
P114849488
 OpenBabel12072022113D
libRbt.so/2013.1/901 2013/11/27
 13 12  0  0  0  0  0  0  0  0999 V2000
  -30.3174   18.7125  -19.4633 C   0  0  0  0  0  0  0  0  0  0  0  0
  -29.9144   17.4277  -18.2519 S   0  0  0  0  0  0  0  0  0  0  0  0
  -30.9128   18.0045  -16.8862 C   0  0  0  0  0  0  0  0  0  0  0  0
  -30.6572   17.4897  -15.6544 C   0  0  0  0  0  0  0  0  0  0  0  0
  -31.4031   17.8950  -14.5142 C   0  0  0  0  0  0  0  0  0  0  0  0
  -32.0318   18.2549  -13.6079 N   0  0  0  0  0  0  0  0  0  0  0  0
  -29.5824   16.4442  -15.4051 C   0  0  0  0  0  0  0  0  0  0  0  0
  -28.6906   15.5769  -15.1982 N   0  0  0  0  0  0  0  0  0  0  0  0
  -31.9211   18.9538  -17.1153 N   0  0  0  0  0  0  0  0  0  0  0  0
  -32.9298   18.7316  -18.0657 N   0  0  0  0  0  0  0  0  0  0  0  0
  -31.6793   19.9365  -16.9453 H   0  0  0  0  0  0  0  0  0  0  0  0
  -32.7507   17.8622  -18.5781 H   0  0  0  0  0  0  0  0  0  0  0  0
  -32.9176   19.4620  -18.7848 H   0  0  0  0  0  0  0  0  0  0  0  0
  1  2  1  0  0  0  0
  2  3  1  0  0  0  0
  3  4  2  0  0  0  0
  3  9  1  0  0  0  0
  4  5  1  0  0  0  0
  4  7  1  0  0  0  0
  5  6  3  0  0  0  0
  7  8  3  0  0  0  0
  9 10  1  0  0  0  0
  9 11  1  0  0  0  0
 10 12  1  0  0  0  0
 10 13  1  0  0  0  0
M  END
>  <CHROM.0>
-57.12823520,-62.33998389,-71.56955928,-41.86694971,-61.66705828,-58.10154480
-168.66508743,-54.43082915,-169.20431552

>  <CHROM.1>
-164.69998494,55.16083648,-5.10348220,-30.76652825,17.75917347,-16.72602858
-1.71563375,-0.62329399,1.79630029

>  <Name>
P114849488

>  <RI>
0

>  <Rbt.Current_Directory>
/home/fstefaniak/projects/zuza/docking/adenine/4TZX

>  <Rbt.Executable>
rbdock ($Id: //depot/dev/client3/rdock/2013.1/src/exe/rbdock.cxx#4 $)

>  <Rbt.Library>
libRbt.so (2013.1, Build901 2013/11/27)

>  <Rbt.Parameter_File>
/home/fstefaniak/progs/rDock//data/scripts/dock_solv.prm

>  <Rbt.Receptor>
4tzx.prm

>  <SCORE>
-50.0977

>  <SCORE.INTER>
-29.5837

>  <SCORE.INTER.CONST>
1

>  <SCORE.INTER.POLAR>
-3.80713

>  <SCORE.INTER.ROT>
3

>  <SCORE.INTER.SOLV>
14.5779

>  <SCORE.INTER.VDW>
-17.4913

>  <SCORE.INTER.norm>
-2.95837

>  <SCORE.INTRA>
-0.122423

>  <SCORE.INTRA.DIHEDRAL>
-2.72745

>  <SCORE.INTRA.DIHEDRAL.0>
4.7079

>  <SCORE.INTRA.POLAR>
0

>  <SCORE.INTRA.POLAR.0>
0

>  <SCORE.INTRA.REPUL>
0

>  <SCORE.INTRA.REPUL.0>
0

>  <SCORE.INTRA.SOLV>
0.168052

>  <SCORE.INTRA.SOLV.lig_0>
-17.6837

>  <SCORE.INTRA.VDW>
1.15728

>  <SCORE.INTRA.VDW.0>
-1.13316

>  <SCORE.INTRA.norm>
-0.0122423

>  <SCORE.RESTR>
0

>  <SCORE.RESTR.CAVITY>
0

>  <SCORE.RESTR.norm>
0

>  <SCORE.SYSTEM>
-20.3916

>  <SCORE.SYSTEM.CONST>
0

>  <SCORE.SYSTEM.DIHEDRAL>
5.49595

>  <SCORE.SYSTEM.POLAR>
-3.08056

>  <SCORE.SYSTEM.SOLV>
0.175493

>  <SCORE.SYSTEM.VDW>
-5.21634

>  <SCORE.SYSTEM.norm>
-2.03916

>  <SCORE.heavy>
10

>  <SCORE.norm>
-5.00977

$$$$
P117550138
 OpenBabel12072022113D
libRbt.so/2013.1/901 2013/11/27
 10  9  0  0  0  0  0  0  0  0999 V2000
  -30.3922   18.3306  -18.8282 C   0  0  0  0  0  0  0  0  0  0  0  0
  -30.1123   18.0487  -17.3529 C   0  0  1  0  0  0  0  0  0  0  0  0
  -31.3384   18.2625  -16.5551 C   0  0  0  0  0  0  0  0  0  0  0  0
  -32.3082   18.3957  -15.9303 N   0  0  0  0  0  0  0  0  0  0  0  0
  -29.6174   16.6873  -17.1746 N   0  0  0  0  0  0  0  0  0  0  0  0
  -29.5899   16.1032  -15.9360 C   0  0  0  0  0  0  0  0  0  0  0  0
  -29.9920   16.6486  -14.9177 O   0  0  0  0  0  0  0  0  0  0  0  0
  -29.0153   14.7350  -15.9501 C   0  0  0  0  0  0  0  0  0  0  0  0
  -28.0102   14.4312  -16.7809 C   0  0  0  0  0  0  0  0  0  0  0  0
  -29.2260   16.2076  -17.9750 H   0  0  0  0  0  0  0  0  0  0  0  0
  2  1  1  6  0  0  0
  2  3  1  0  0  0  0
  2  5  1  0  0  0  0
  3  4  3  0  0  0  0
  5  6  1  0  0  0  0
  5 10  1  0  0  0  0
  6  7  2  0  0  0  0
  6  8  1  0  0  0  0
  8  9  2  0  0  0  0
M  END
>  <CHROM.0>
-61.53765382,-61.80313799,-65.39740206,-43.36350139,-176.89675888,-62.89505005
-67.74979585,-60.40722990,-168.73025089

>  <CHROM.1>
-164.79293378,35.28580224,-30.03093794,16.84918955,-16.61614301,-2.58223566
-0.79809241,2.05253955

>  <Name>
P117550138

>  <RI>
0

>  <Rbt.Current_Directory>
/home/fstefaniak/projects/zuza/docking/adenine/4TZX

>  <Rbt.Executable>
rbdock ($Id: //depot/dev/client3/rdock/2013.1/src/exe/rbdock.cxx#4 $)

>  <Rbt.Library>
libRbt.so (2013.1, Build901 2013/11/27)

>  <Rbt.Parameter_File>
/home/fstefaniak/progs/rDock//data/scripts/dock_solv.prm

>  <Rbt.Receptor>
4tzx.prm

>  <SCORE>
-45.6419

>  <SCORE.INTER>
-27.9784

>  <SCORE.INTER.CONST>
1

>  <SCORE.INTER.POLAR>
-3.11664

>  <SCORE.INTER.ROT>
2

>  <SCORE.INTER.SOLV>
10.0086

>  <SCORE.INTER.VDW>
-16.533

>  <SCORE.INTER.norm>
-3.10872

>  <SCORE.INTRA>
3.70387

>  <SCORE.INTRA.DIHEDRAL>
3.84154

>  <SCORE.INTRA.DIHEDRAL.0>
1.06189

>  <SCORE.INTRA.POLAR>
0

>  <SCORE.INTRA.POLAR.0>
0

>  <SCORE.INTRA.REPUL>
0

>  <SCORE.INTRA.REPUL.0>
0

>  <SCORE.INTRA.SOLV>
0.599369

>  <SCORE.INTRA.SOLV.lig_0>
-12.7784

>  <SCORE.INTRA.VDW>
1.48341

>  <SCORE.INTRA.VDW.0>
-0.0834981

>  <SCORE.INTRA.norm>
0.411541

>  <SCORE.RESTR>
0

>  <SCORE.RESTR.CAVITY>
0

>  <SCORE.RESTR.norm>
0

>  <SCORE.SYSTEM>
-21.3674

>  <SCORE.SYSTEM.CONST>
0

>  <SCORE.SYSTEM.DIHEDRAL>
4.44051

>  <SCORE.SYSTEM.POLAR>
-3.039

>  <SCORE.SYSTEM.SOLV>
-0.00944814

>  <SCORE.SYSTEM.VDW>
-5.59191

>  <SCORE.SYSTEM.norm>
-2.37415

>  <SCORE.heavy>
9

>  <SCORE.norm>
-5.07133

$$$$
P117550138
 OpenBabel12072022113D
libRbt.so/2013.1/901 2013/11/27
 10  9  0  0  0  0  0  0  0  0999 V2000
  -30.3210   18.3609  -18.8664 C   0  0  0  0  0  0  0  0  0  0  0  0
  -30.0899   18.0599  -17.3864 C   0  0  1  0  0  0  0  0  0  0  0  0
  -31.3354   18.2869  -16.6231 C   0  0  0  0  0  0  0  0  0  0  0  0
  -32.3210   18.4306  -16.0259 N   0  0  0  0  0  0  0  0  0  0  0  0
  -29.6235   16.6885  -17.2075 N   0  0  0  0  0  0  0  0  0  0  0  0
  -29.6541   16.0879  -15.9770 C   0  0  0  0  0  0  0  0  0  0  0  0
  -30.0877   16.6261  -14.9679 O   0  0  0  0  0  0  0  0  0  0  0  0
  -29.1006   14.7109  -15.9872 C   0  0  0  0  0  0  0  0  0  0  0  0
  -28.0332   14.4158  -16.7398 C   0  0  0  0  0  0  0  0  0  0  0  0
  -29.2083   16.2131  -17.9984 H   0  0  0  0  0  0  0  0  0  0  0  0
  2  1  1  6  0  0  0
  2  3  1  0  0  0  0
  2  5  1  0  0  0  0
  3  4  3  0  0  0  0
  5  6  1  0  0  0  0
  5 10  1  0  0  0  0
  6  7  2  0  0  0  0
  6  8  1  0  0  0  0
  8  9  2  0  0  0  0
M  END
>  <CHROM.0>
-62.05096643,-59.48002079,-64.38436476,-43.30712128,-175.74332930,-61.47399805
-67.21711187,-59.90519658,-169.20584364

>  <CHROM.1>
-164.19418806,38.09298814,-30.05176806,16.85186044,-16.65522992,-2.52420297
-0.79074679,2.10435627

>  <Name>
P117550138

>  <RI>
0

>  <Rbt.Current_Directory>
/home/fstefaniak/projects/zuza/docking/adenine/4TZX

>  <Rbt.Executable>
rbdock ($Id: //depot/dev/client3/rdock/2013.1/src/exe/rbdock.cxx#4 $)

>  <Rbt.Library>
libRbt.so (2013.1, Build901 2013/11/27)

>  <Rbt.Parameter_File>
/home/fstefaniak/progs/rDock//data/scripts/dock_solv.prm

>  <Rbt.Receptor>
4tzx.prm

>  <SCORE>
-45.542

>  <SCORE.INTER>
-28.0844

>  <SCORE.INTER.CONST>
1

>  <SCORE.INTER.POLAR>
-3.10928

>  <SCORE.INTER.ROT>
2

>  <SCORE.INTER.SOLV>
10.1328

>  <SCORE.INTER.VDW>
-16.6696

>  <SCORE.INTER.norm>
-3.12048

>  <SCORE.INTRA>
3.85092

>  <SCORE.INTRA.DIHEDRAL>
4.37398

>  <SCORE.INTRA.DIHEDRAL.0>
1.06189

>  <SCORE.INTRA.POLAR>
0

>  <SCORE.INTRA.POLAR.0>
0

>  <SCORE.INTRA.REPUL>
0

>  <SCORE.INTRA.REPUL.0>
0

>  <SCORE.INTRA.SOLV>
0.602607

>  <SCORE.INTRA.SOLV.lig_0>
-12.7784

>  <SCORE.INTRA.VDW>
1.36262

>  <SCORE.INTRA.VDW.0>
-0.0834981

>  <SCORE.INTRA.norm>
0.42788

>  <SCORE.RESTR>
0

>  <SCORE.RESTR.CAVITY>
0

>  <SCORE.RESTR.norm>
0

>  <SCORE.SYSTEM>
-21.3085

>  <SCORE.SYSTEM.CONST>
0

>  <SCORE.SYSTEM.DIHEDRAL>
4.32668

>  <SCORE.SYSTEM.POLAR>
-3.03301

>  <SCORE.SYSTEM.SOLV>
-0.00206305

>  <SCORE.SYSTEM.VDW>
-5.53719

>  <SCORE.SYSTEM.norm>
-2.36761

>  <SCORE.heavy>
9

>  <SCORE.norm>
-5.06022

$$$$
P117550138
 OpenBabel12072022113D
libRbt.so/2013.1/901 2013/11/27
 10  9  0  0  0  0  0  0  0  0999 V2000
  -30.3283   18.3410  -18.8550 C   0  0  0  0  0  0  0  0  0  0  0  0
  -30.0760   18.0527  -17.3759 C   0  0  1  0  0  0  0  0  0  0  0  0
  -31.3134   18.2757  -16.5985 C   0  0  0  0  0  0  0  0  0  0  0  0
  -32.2925   18.4161  -15.9898 N   0  0  0  0  0  0  0  0  0  0  0  0
  -29.5966   16.6863  -17.1931 N   0  0  0  0  0  0  0  0  0  0  0  0
  -29.5808   16.1043  -15.9533 C   0  0  0  0  0  0  0  0  0  0  0  0
  -29.9813   16.6559  -14.9377 O   0  0  0  0  0  0  0  0  0  0  0  0
  -29.0210   14.7299  -15.9624 C   0  0  0  0  0  0  0  0  0  0  0  0
  -28.0113   14.4155  -16.7837 C   0  0  0  0  0  0  0  0  0  0  0  0
  -29.2071   16.2009  -17.9909 H   0  0  0  0  0  0  0  0  0  0  0  0
  2  1  1  6  0  0  0
  2  3  1  0  0  0  0
  2  5  1  0  0  0  0
  3  4  3  0  0  0  0
  5  6  1  0  0  0  0
  5 10  1  0  0  0  0
  6  7  2  0  0  0  0
  6  8  1  0  0  0  0
  8  9  2  0  0  0  0
M  END
>  <CHROM.0>
-59.98037143,-58.37517908,-67.43643929,-43.45746603,-58.38394609,-61.76099746
-66.49239598,-60.57380578,-168.94881810

>  <CHROM.1>
-165.57039436,35.62075530,-30.01117030,16.85302690,-16.64077617,-2.56175907
-0.79927967,2.06638789

>  <Name>
P117550138

>  <RI>
0

>  <Rbt.Current_Directory>
/home/fstefaniak/projects/zuza/docking/adenine/4TZX

>  <Rbt.Executable>
rbdock ($Id: //depot/dev/client3/rdock/2013.1/src/exe/rbdock.cxx#4 $)

>  <Rbt.Library>
libRbt.so (2013.1, Build901 2013/11/27)

>  <Rbt.Parameter_File>
/home/fstefaniak/progs/rDock//data/scripts/dock_solv.prm

>  <Rbt.Receptor>
4tzx.prm

>  <SCORE>
-45.4873

>  <SCORE.INTER>
-27.9879

>  <SCORE.INTER.CONST>
1

>  <SCORE.INTER.POLAR>
-3.11664

>  <SCORE.INTER.ROT>
2

>  <SCORE.INTER.SOLV>
10.0189

>  <SCORE.INTER.VDW>
-16.5427

>  <SCORE.INTER.norm>
-3.10976

>  <SCORE.INTRA>
3.67524

>  <SCORE.INTRA.DIHEDRAL>
3.9083

>  <SCORE.INTRA.DIHEDRAL.0>
1.06189

>  <SCORE.INTRA.POLAR>
0

>  <SCORE.INTRA.POLAR.0>
0

>  <SCORE.INTRA.REPUL>
0

>  <SCORE.INTRA.REPUL.0>
0

>  <SCORE.INTRA.SOLV>
0.591616

>  <SCORE.INTRA.SOLV.lig_0>
-12.7784

>  <SCORE.INTRA.VDW>
1.42528

>  <SCORE.INTRA.VDW.0>
-0.0834981

>  <SCORE.INTRA.norm>
0.40836

>  <SCORE.RESTR>
0

>  <SCORE.RESTR.CAVITY>
0

>  <SCORE.RESTR.norm>
0

>  <SCORE.SYSTEM>
-21.1747

>  <SCORE.SYSTEM.CONST>
0

>  <SCORE.SYSTEM.DIHEDRAL>
4.37516

>  <SCORE.SYSTEM.POLAR>
-3.04316

>  <SCORE.SYSTEM.SOLV>
0.184383

>  <SCORE.SYSTEM.VDW>
-5.49244

>  <SCORE.SYSTEM.norm>
-2.35274

>  <SCORE.heavy>
9

>  <SCORE.norm>
-5.05415

$$$$
P117557462
 OpenBabel12072022113D
libRbt.so/2013.1/901 2013/11/27
 11 11  0  0  0  0  0  0  0  0999 V2000
  -31.4741   17.9698  -13.6372 C   0  0  0  0  0  0  0  0  0  0  0  0
  -30.9362   17.0079  -14.5427 O   0  0  0  0  0  0  0  0  0  0  0  0
  -30.9098   17.4921  -15.8294 C   0  0  0  0  0  0  0  0  0  0  0  0
  -29.8236   17.3610  -16.6137 C   0  0  0  0  0  0  0  0  0  0  0  0
  -29.7985   17.9440  -18.0050 C   0  0  0  0  0  0  0  0  0  0  0  0
  -30.8879   19.0025  -18.2310 C   0  0  0  0  0  0  0  0  0  0  0  0
  -32.2241   18.5656  -17.6326 C   0  0  0  0  0  0  0  0  0  0  0  0
  -32.0172   18.1894  -16.2487 N   0  0  0  0  0  0  0  0  0  0  0  0
  -28.5920   16.6187  -16.1210 C   0  0  0  0  0  0  0  0  0  0  0  0
  -27.5704   16.0029  -15.7123 N   0  0  0  0  0  0  0  0  0  0  0  0
  -32.8253   18.1325  -15.6379 H   0  0  0  0  0  0  0  0  0  0  0  0
  1  2  1  0  0  0  0
  2  3  1  0  0  0  0
  3  4  2  0  0  0  0
  3  8  1  0  0  0  0
  4  5  1  0  0  0  0
  4  9  1  0  0  0  0
  5  6  1  0  0  0  0
  6  7  1  0  0  0  0
  7  8  1  0  0  0  0
  8 11  1  0  0  0  0
  9 10  3  0  0  0  0
M  END
>  <CHROM.0>
-60.00137358,-59.53465493,-67.01561778,-43.49127045,-58.23929450,-63.44033409
-63.75682408,-62.21076211,-168.97594145

>  <CHROM.1>
133.81965547,-30.48444828,17.63326004,-16.21236823,0.61862339,-0.44868492
1.86866756

>  <Name>
P117557462

>  <RI>
0

>  <Rbt.Current_Directory>
/home/fstefaniak/projects/zuza/docking/adenine/4TZX

>  <Rbt.Executable>
rbdock ($Id: //depot/dev/client3/rdock/2013.1/src/exe/rbdock.cxx#4 $)

>  <Rbt.Library>
libRbt.so (2013.1, Build901 2013/11/27)

>  <Rbt.Parameter_File>
/home/fstefaniak/progs/rDock//data/scripts/dock_solv.prm

>  <Rbt.Receptor>
4tzx.prm

>  <SCORE>
-45.5988

>  <SCORE.INTER>
-21.7923

>  <SCORE.INTER.CONST>
1

>  <SCORE.INTER.POLAR>
-2.22552

>  <SCORE.INTER.ROT>
1

>  <SCORE.INTER.SOLV>
10.0462

>  <SCORE.INTER.VDW>
-14.7252

>  <SCORE.INTER.norm>
-2.17923

>  <SCORE.INTRA>
-2.63577

>  <SCORE.INTRA.DIHEDRAL>
-10.8599

>  <SCORE.INTRA.DIHEDRAL.0>
22.1532

>  <SCORE.INTRA.POLAR>
0

>  <SCORE.INTRA.POLAR.0>
0

>  <SCORE.INTRA.REPUL>
0

>  <SCORE.INTRA.REPUL.0>
0

>  <SCORE.INTRA.SOLV>
0.011892

>  <SCORE.INTRA.SOLV.lig_0>
-9.52974

>  <SCORE.INTRA.VDW>
2.78823

>  <SCORE.INTRA.VDW.0>
-0.109212

>  <SCORE.INTRA.norm>
-0.263577

>  <SCORE.RESTR>
0

>  <SCORE.RESTR.CAVITY>
0

>  <SCORE.RESTR.norm>
0

>  <SCORE.SYSTEM>
-21.1707

>  <SCORE.SYSTEM.CONST>
0

>  <SCORE.SYSTEM.DIHEDRAL>
4.26538

>  <SCORE.SYSTEM.POLAR>
-3.04358

>  <SCORE.SYSTEM.SOLV>
0.185422

>  <SCORE.SYSTEM.VDW>
-5.45217

>  <SCORE.SYSTEM.norm>
-2.11707

>  <SCORE.heavy>
10

>  <SCORE.norm>
-4.55988

$$$$
P117557462
 OpenBabel12072022113D
libRbt.so/2013.1/901 2013/11/27
 11 11  0  0  0  0  0  0  0  0999 V2000
  -31.4524   17.9682  -13.6480 C   0  0  0  0  0  0  0  0  0  0  0  0
  -30.9632   16.9875  -14.5608 O   0  0  0  0  0  0  0  0  0  0  0  0
  -30.9209   17.4764  -15.8453 C   0  0  0  0  0  0  0  0  0  0  0  0
  -29.8340   17.3264  -16.6252 C   0  0  0  0  0  0  0  0  0  0  0  0
  -29.7905   17.9146  -18.0138 C   0  0  0  0  0  0  0  0  0  0  0  0
  -30.8570   18.9961  -18.2403 C   0  0  0  0  0  0  0  0  0  0  0  0
  -32.2046   18.5842  -17.6498 C   0  0  0  0  0  0  0  0  0  0  0  0
  -32.0119   18.1979  -16.2667 N   0  0  0  0  0  0  0  0  0  0  0  0
  -28.6201   16.5570  -16.1301 C   0  0  0  0  0  0  0  0  0  0  0  0
  -27.6132   15.9187  -15.7194 N   0  0  0  0  0  0  0  0  0  0  0  0
  -32.8238   18.1551  -15.6598 H   0  0  0  0  0  0  0  0  0  0  0  0
  1  2  1  0  0  0  0
  2  3  1  0  0  0  0
  3  4  2  0  0  0  0
  3  8  1  0  0  0  0
  4  5  1  0  0  0  0
  4  9  1  0  0  0  0
  5  6  1  0  0  0  0
  6  7  1  0  0  0  0
  7  8  1  0  0  0  0
  8 11  1  0  0  0  0
  9 10  3  0  0  0  0
M  END
>  <CHROM.0>
-60.19388743,-64.09444352,-66.74464242,-43.49770886,-58.44312759,-61.14250368
-65.83495411,-60.12763094,-168.95634126

>  <CHROM.1>
132.28082429,-30.48738426,17.61175890,-16.22508698,0.63807286,-0.46831502
1.87431903

>  <Name>
P117557462

>  <RI>
0

>  <Rbt.Current_Directory>
/home/fstefaniak/projects/zuza/docking/adenine/4TZX

>  <Rbt.Executable>
rbdock ($Id: //depot/dev/client3/rdock/2013.1/src/exe/rbdock.cxx#4 $)

>  <Rbt.Library>
libRbt.so (2013.1, Build901 2013/11/27)

>  <Rbt.Parameter_File>
/home/fstefaniak/progs/rDock//data/scripts/dock_solv.prm

>  <Rbt.Receptor>
4tzx.prm

>  <SCORE>
-45.5944

>  <SCORE.INTER>
-21.7758

>  <SCORE.INTER.CONST>
1

>  <SCORE.INTER.POLAR>
-2.17559

>  <SCORE.INTER.ROT>
1

>  <SCORE.INTER.SOLV>
10.0515

>  <SCORE.INTER.VDW>
-14.8824

>  <SCORE.INTER.norm>
-2.17758

>  <SCORE.INTRA>
-2.60488

>  <SCORE.INTRA.DIHEDRAL>
-10.2383

>  <SCORE.INTRA.DIHEDRAL.0>
22.1532

>  <SCORE.INTRA.POLAR>
0

>  <SCORE.INTRA.POLAR.0>
0

>  <SCORE.INTRA.REPUL>
0

>  <SCORE.INTRA.REPUL.0>
0

>  <SCORE.INTRA.SOLV>
0.00904569

>  <SCORE.INTRA.SOLV.lig_0>
-9.52974

>  <SCORE.INTRA.VDW>
2.50975

>  <SCORE.INTRA.VDW.0>
-0.109212

>  <SCORE.INTRA.norm>
-0.260488

>  <SCORE.RESTR>
0

>  <SCORE.RESTR.CAVITY>
0

>  <SCORE.RESTR.norm>
0

>  <SCORE.SYSTEM>
-21.2137

>  <SCORE.SYSTEM.CONST>
0

>  <SCORE.SYSTEM.DIHEDRAL>
4.34635

>  <SCORE.SYSTEM.POLAR>
-3.04279

>  <SCORE.SYSTEM.SOLV>
0.184617

>  <SCORE.SYSTEM.VDW>
-5.51014

>  <SCORE.SYSTEM.norm>
-2.12137

>  <SCORE.heavy>
10

>  <SCORE.norm>
-4.55944

$$$$
P117557462
 OpenBabel12072022113D
libRbt.so/2013.1/901 2013/11/27
 11 11  0  0  0  0  0  0  0  0999 V2000
  -31.4318   17.9819  -13.6362 C   0  0  0  0  0  0  0  0  0  0  0  0
  -30.9198   17.0108  -14.5468 O   0  0  0  0  0  0  0  0  0  0  0  0
  -30.8934   17.4959  -15.8331 C   0  0  0  0  0  0  0  0  0  0  0  0
  -29.8102   17.3576  -16.6204 C   0  0  0  0  0  0  0  0  0  0  0  0
  -29.7846   17.9417  -18.0113 C   0  0  0  0  0  0  0  0  0  0  0  0
  -30.8670   19.0083  -18.2334 C   0  0  0  0  0  0  0  0  0  0  0  0
  -32.2046   18.5806  -17.6318 C   0  0  0  0  0  0  0  0  0  0  0  0
  -31.9968   18.2015  -16.2488 N   0  0  0  0  0  0  0  0  0  0  0  0
  -28.5827   16.6060  -16.1317 C   0  0  0  0  0  0  0  0  0  0  0  0
  -27.5645   15.9824  -15.7263 N   0  0  0  0  0  0  0  0  0  0  0  0
  -32.8036   18.1500  -15.6359 H   0  0  0  0  0  0  0  0  0  0  0  0
  1  2  1  0  0  0  0
  2  3  1  0  0  0  0
  3  4  2  0  0  0  0
  3  8  1  0  0  0  0
  4  5  1  0  0  0  0
  4  9  1  0  0  0  0
  5  6  1  0  0  0  0
  6  7  1  0  0  0  0
  7  8  1  0  0  0  0
  8 11  1  0  0  0  0
  9 10  3  0  0  0  0
M  END
>  <CHROM.0>
-61.32173728,-62.35221095,-65.81124020,-43.58883947,-55.41185798,-58.17515131
-68.44551891,-60.11927337,-168.56943617

>  <CHROM.1>
133.04806062,-30.46620195,17.63502059,-16.21678157,0.62205480,-0.45713578
1.86746246

>  <Name>
P117557462

>  <RI>
0

>  <Rbt.Current_Directory>
/home/fstefaniak/projects/zuza/docking/adenine/4TZX

>  <Rbt.Executable>
rbdock ($Id: //depot/dev/client3/rdock/2013.1/src/exe/rbdock.cxx#4 $)

>  <Rbt.Library>
libRbt.so (2013.1, Build901 2013/11/27)

>  <Rbt.Parameter_File>
/home/fstefaniak/progs/rDock//data/scripts/dock_solv.prm

>  <Rbt.Receptor>
4tzx.prm

>  <SCORE>
-45.5828

>  <SCORE.INTER>
-21.8166

>  <SCORE.INTER.CONST>
1

>  <SCORE.INTER.POLAR>
-2.2193

>  <SCORE.INTER.ROT>
1

>  <SCORE.INTER.SOLV>
10.023

>  <SCORE.INTER.VDW>
-14.7544

>  <SCORE.INTER.norm>
-2.18166

>  <SCORE.INTRA>
-2.62317

>  <SCORE.INTRA.DIHEDRAL>
-10.5482

>  <SCORE.INTRA.DIHEDRAL.0>
22.1532

>  <SCORE.INTRA.POLAR>
0

>  <SCORE.INTRA.POLAR.0>
0

>  <SCORE.INTRA.REPUL>
0

>  <SCORE.INTRA.REPUL.0>
0

>  <SCORE.INTRA.SOLV>
0.0104721

>  <SCORE.INTRA.SOLV.lig_0>
-9.52974

>  <SCORE.INTRA.VDW>
2.64571

>  <SCORE.INTRA.VDW.0>
-0.109212

>  <SCORE.INTRA.norm>
-0.262317

>  <SCORE.RESTR>
0

>  <SCORE.RESTR.CAVITY>
0

>  <SCORE.RESTR.norm>
0

>  <SCORE.SYSTEM>
-21.143

>  <SCORE.SYSTEM.CONST>
0

>  <SCORE.SYSTEM.DIHEDRAL>
4.53129

>  <SCORE.SYSTEM.POLAR>
-3.04771

>  <SCORE.SYSTEM.SOLV>
0.185947

>  <SCORE.SYSTEM.VDW>
-5.50874

>  <SCORE.SYSTEM.norm>
-2.1143

>  <SCORE.heavy>
10

>  <SCORE.norm>
-4.55828

$$$$
P117594918
 OpenBabel12072022113D
libRbt.so/2013.1/901 2013/11/27
 16 15  0  0  0  0  0  0  0  0999 V2000
  -28.6525   14.2966  -16.5234 C   0  0  0  0  0  0  0  0  0  0  0  0
  -27.5204   13.3080  -16.8679 C   0  0  0  0  0  0  0  0  0  0  0  0
  -27.5711   12.1482  -15.8527 C   0  0  0  0  0  0  0  0  0  0  0  0
  -27.8170   12.6954  -18.2592 C   0  0  0  0  0  0  0  0  0  0  0  0
  -26.1114   14.0001  -16.8949 C   0  0  2  0  0  0  0  0  0  0  0  0
  -25.0381   13.3787  -15.9621 C   0  0  0  0  0  0  0  0  0  0  0  0
  -24.9778   13.6915  -14.7694 O   0  0  0  0  0  0  0  0  0  0  0  0
  -24.0738   12.5963  -16.5049 N   0  0  0  0  0  0  0  0  0  0  0  0
  -26.2397   15.4580  -16.5291 N   0  0  0  0  0  0  0  0  0  0  0  0
  -25.1971   16.2550  -17.1178 N   0  3  0  0  0  0  0  0  0  0  0  0
  -24.3110   16.1697  -16.5684 H   0  0  0  0  0  0  0  0  0  0  0  0
  -24.9966   15.9953  -18.0964 H   0  0  0  0  0  0  0  0  0  0  0  0
  -25.4442   17.2589  -17.1198 H   0  0  0  0  0  0  0  0  0  0  0  0
  -23.9789   12.3771  -17.4889 H   0  0  0  0  0  0  0  0  0  0  0  0
  -23.3643   12.2098  -15.8887 H   0  0  0  0  0  0  0  0  0  0  0  0
  -26.2014   15.5068  -15.4984 H   0  0  0  0  0  0  0  0  0  0  0  0
  1  2  1  0  0  0  0
  2  3  1  0  0  0  0
  2  4  1  0  0  0  0
  5  6  1  1  0  0  0
  5  9  1  0  0  0  0
  5  2  1  0  0  0  0
  6  7  2  0  0  0  0
  6  8  1  0  0  0  0
  8 14  1  0  0  0  0
  8 15  1  0  0  0  0
  9 10  1  0  0  0  0
  9 16  1  0  0  0  0
 10 11  1  0  0  0  0
 10 12  1  0  0  0  0
 10 13  1  0  0  0  0
M  CHG  1  10   1
M  END
>  <CHROM.0>
-57.63993023,66.83157280,-71.09180419,-42.21306608,-168.61274472,-55.25653339
-170.68282663,-172.36562019,-169.34242389

>  <CHROM.1>
-83.79790472,-152.58652783,123.94124993,-79.62886114,-26.27350169,13.82357209
-16.52246306,2.85971430,0.31599720,2.93415762

>  <Name>
P117594918

>  <RI>
0

>  <Rbt.Current_Directory>
/home/fstefaniak/projects/zuza/docking/adenine/4TZX

>  <Rbt.Executable>
rbdock ($Id: //depot/dev/client3/rdock/2013.1/src/exe/rbdock.cxx#4 $)

>  <Rbt.Library>
libRbt.so (2013.1, Build901 2013/11/27)

>  <Rbt.Parameter_File>
/home/fstefaniak/progs/rDock//data/scripts/dock_solv.prm

>  <Rbt.Receptor>
4tzx.prm

>  <SCORE>
-49.505

>  <SCORE.INTER>
-34.2537

>  <SCORE.INTER.CONST>
1

>  <SCORE.INTER.POLAR>
-5.56438

>  <SCORE.INTER.ROT>
3

>  <SCORE.INTER.SOLV>
19.6553

>  <SCORE.INTER.VDW>
-16.4396

>  <SCORE.INTER.norm>
-3.42537

>  <SCORE.INTRA>
4.0564

>  <SCORE.INTRA.DIHEDRAL>
6.48654

>  <SCORE.INTRA.DIHEDRAL.0>
0.879253

>  <SCORE.INTRA.POLAR>
0

>  <SCORE.INTRA.POLAR.0>
0

>  <SCORE.INTRA.REPUL>
0

>  <SCORE.INTRA.REPUL.0>
0

>  <SCORE.INTRA.SOLV>
-1.44701

>  <SCORE.INTRA.SOLV.lig_0>
-32.6496

>  <SCORE.INTRA.VDW>
1.53663

>  <SCORE.INTRA.VDW.0>
-0.0300844

>  <SCORE.INTRA.norm>
0.40564

>  <SCORE.RESTR>
0

>  <SCORE.RESTR.CAVITY>
0

>  <SCORE.RESTR.norm>
0

>  <SCORE.SYSTEM>
-19.3078

>  <SCORE.SYSTEM.CONST>
0

>  <SCORE.SYSTEM.DIHEDRAL>
6.15418

>  <SCORE.SYSTEM.POLAR>
-3.06968

>  <SCORE.SYSTEM.SOLV>
-0.110223

>  <SCORE.SYSTEM.VDW>
-4.65424

>  <SCORE.SYSTEM.norm>
-1.93078

>  <SCORE.heavy>
10

>  <SCORE.norm>
-4.9505

$$$$
P117594918
 OpenBabel12072022113D
libRbt.so/2013.1/901 2013/11/27
 16 15  0  0  0  0  0  0  0  0999 V2000
  -28.6620   14.2413  -16.4841 C   0  0  0  0  0  0  0  0  0  0  0  0
  -27.5246   13.2809  -16.8858 C   0  0  0  0  0  0  0  0  0  0  0  0
  -27.5590   12.0707  -15.9305 C   0  0  0  0  0  0  0  0  0  0  0  0
  -27.8260   12.7372  -18.3045 C   0  0  0  0  0  0  0  0  0  0  0  0
  -26.1212   13.9851  -16.8869 C   0  0  2  0  0  0  0  0  0  0  0  0
  -25.0527   13.3580  -15.9526 C   0  0  0  0  0  0  0  0  0  0  0  0
  -24.9891   13.6743  -14.7609 O   0  0  0  0  0  0  0  0  0  0  0  0
  -24.0951   12.5659  -16.4932 N   0  0  0  0  0  0  0  0  0  0  0  0
  -26.2658   15.4359  -16.4997 N   0  0  0  0  0  0  0  0  0  0  0  0
  -25.2257   16.2512  -17.0672 N   0  3  0  0  0  0  0  0  0  0  0  0
  -25.0100   15.9485  -18.0451 H   0  0  0  0  0  0  0  0  0  0  0  0
  -25.4664   17.2547  -17.0855 H   0  0  0  0  0  0  0  0  0  0  0  0
  -24.3444   16.1652  -16.5336 H   0  0  0  0  0  0  0  0  0  0  0  0
  -24.0024   12.3426  -17.4764 H   0  0  0  0  0  0  0  0  0  0  0  0
  -23.3884   12.1757  -15.8760 H   0  0  0  0  0  0  0  0  0  0  0  0
  -26.2365   15.4690  -15.4681 H   0  0  0  0  0  0  0  0  0  0  0  0
  1  2  1  0  0  0  0
  2  3  1  0  0  0  0
  2  4  1  0  0  0  0
  5  6  1  1  0  0  0
  5  9  1  0  0  0  0
  5  2  1  0  0  0  0
  6  7  2  0  0  0  0
  6  8  1  0  0  0  0
  8 14  1  0  0  0  0
  8 15  1  0  0  0  0
  9 10  1  0  0  0  0
  9 16  1  0  0  0  0
 10 11  1  0  0  0  0
 10 12  1  0  0  0  0
 10 13  1  0  0  0  0
M  CHG  1  10   1
M  END
>  <CHROM.0>
-61.21113237,65.57856857,-70.82837149,-44.85130731,57.40444521,-57.21751332
-166.18539103,-172.01007310,-168.69346675

>  <CHROM.1>
-85.38013811,-152.45090393,121.69872861,39.35555035,-26.28614273,13.80055589
-16.52012452,2.85049278,0.32971775,2.95614910

>  <Name>
P117594918

>  <RI>
0

>  <Rbt.Current_Directory>
/home/fstefaniak/projects/zuza/docking/adenine/4TZX

>  <Rbt.Executable>
rbdock ($Id: //depot/dev/client3/rdock/2013.1/src/exe/rbdock.cxx#4 $)

>  <Rbt.Library>
libRbt.so (2013.1, Build901 2013/11/27)

>  <Rbt.Parameter_File>
/home/fstefaniak/progs/rDock//data/scripts/dock_solv.prm

>  <Rbt.Receptor>
4tzx.prm

>  <SCORE>
-48.6784

>  <SCORE.INTER>
-34.3052

>  <SCORE.INTER.CONST>
1

>  <SCORE.INTER.POLAR>
-5.57772

>  <SCORE.INTER.ROT>
3

>  <SCORE.INTER.SOLV>
19.2426

>  <SCORE.INTER.VDW>
-16.292

>  <SCORE.INTER.norm>
-3.43052

>  <SCORE.INTRA>
4.16386

>  <SCORE.INTRA.DIHEDRAL>
6.51707

>  <SCORE.INTRA.DIHEDRAL.0>
0.879253

>  <SCORE.INTRA.POLAR>
0

>  <SCORE.INTRA.POLAR.0>
0

>  <SCORE.INTRA.REPUL>
0

>  <SCORE.INTRA.REPUL.0>
0

>  <SCORE.INTRA.SOLV>
-1.37235

>  <SCORE.INTRA.SOLV.lig_0>
-32.6496

>  <SCORE.INTRA.VDW>
1.5915

>  <SCORE.INTRA.VDW.0>
-0.0300844

>  <SCORE.INTRA.norm>
0.416386

>  <SCORE.RESTR>
0

>  <SCORE.RESTR.CAVITY>
0

>  <SCORE.RESTR.norm>
0

>  <SCORE.SYSTEM>
-18.537

>  <SCORE.SYSTEM.CONST>
0

>  <SCORE.SYSTEM.DIHEDRAL>
5.59228

>  <SCORE.SYSTEM.POLAR>
-2.99076

>  <SCORE.SYSTEM.SOLV>
-0.148457

>  <SCORE.SYSTEM.VDW>
-4.20344

>  <SCORE.SYSTEM.norm>
-1.8537

>  <SCORE.heavy>
10

>  <SCORE.norm>
-4.86784

$$$$
P117594918
 OpenBabel12072022113D
libRbt.so/2013.1/901 2013/11/27
 16 15  0  0  0  0  0  0  0  0999 V2000
  -27.5377   12.0153  -16.0881 C   0  0  0  0  0  0  0  0  0  0  0  0
  -27.4888   13.2903  -16.9539 C   0  0  0  0  0  0  0  0  0  0  0  0
  -27.8922   12.9087  -18.3927 C   0  0  0  0  0  0  0  0  0  0  0  0
  -28.5680   14.2722  -16.4342 C   0  0  0  0  0  0  0  0  0  0  0  0
  -26.0841   13.9902  -16.9068 C   0  0  2  0  0  0  0  0  0  0  0  0
  -25.0411   13.3432  -15.9573 C   0  0  0  0  0  0  0  0  0  0  0  0
  -24.9881   13.6590  -14.7650 O   0  0  0  0  0  0  0  0  0  0  0  0
  -24.0915   12.5324  -16.4842 N   0  0  0  0  0  0  0  0  0  0  0  0
  -26.2348   15.4343  -16.4971 N   0  0  0  0  0  0  0  0  0  0  0  0
  -25.2157   16.2678  -17.0761 N   0  3  0  0  0  0  0  0  0  0  0  0
  -25.0312   15.9918  -18.0682 H   0  0  0  0  0  0  0  0  0  0  0  0
  -25.4593   17.2706  -17.0599 H   0  0  0  0  0  0  0  0  0  0  0  0
  -24.3172   16.1705  -16.5739 H   0  0  0  0  0  0  0  0  0  0  0  0
  -23.9895   12.3067  -17.4660 H   0  0  0  0  0  0  0  0  0  0  0  0
  -23.4012   12.1290  -15.8570 H   0  0  0  0  0  0  0  0  0  0  0  0
  -26.1831   15.4540  -15.4659 H   0  0  0  0  0  0  0  0  0  0  0  0
  1  2  1  0  0  0  0
  2  3  1  0  0  0  0
  2  4  1  0  0  0  0
  5  6  1  1  0  0  0
  5  9  1  0  0  0  0
  5  2  1  0  0  0  0
  6  7  2  0  0  0  0
  6  8  1  0  0  0  0
  8 14  1  0  0  0  0
  8 15  1  0  0  0  0
  9 10  1  0  0  0  0
  9 16  1  0  0  0  0
 10 11  1  0  0  0  0
 10 12  1  0  0  0  0
 10 13  1  0  0  0  0
M  CHG  1  10   1
M  END
>  <CHROM.0>
-62.08270565,68.26384005,-73.87508249,-44.43191700,58.93895380,59.36662126
-174.92639114,-60.09242066,-168.86876097

>  <CHROM.1>
-86.94981811,-149.63625719,-3.38285540,40.41991304,-26.26903972,13.81200933
-16.54824152,-2.88354778,-0.35568596,-0.18284742

>  <Name>
P117594918

>  <RI>
0

>  <Rbt.Current_Directory>
/home/fstefaniak/projects/zuza/docking/adenine/4TZX

>  <Rbt.Executable>
rbdock ($Id: //depot/dev/client3/rdock/2013.1/src/exe/rbdock.cxx#4 $)

>  <Rbt.Library>
libRbt.so (2013.1, Build901 2013/11/27)

>  <Rbt.Parameter_File>
/home/fstefaniak/progs/rDock//data/scripts/dock_solv.prm

>  <Rbt.Receptor>
4tzx.prm

>  <SCORE>
-46.7522

>  <SCORE.INTER>
-34.2802

>  <SCORE.INTER.CONST>
1

>  <SCORE.INTER.POLAR>
-5.58241

>  <SCORE.INTER.ROT>
3

>  <SCORE.INTER.SOLV>
19.3027

>  <SCORE.INTER.VDW>
-16.2797

>  <SCORE.INTER.norm>
-3.42802

>  <SCORE.INTRA>
4.99873

>  <SCORE.INTRA.DIHEDRAL>
6.53698

>  <SCORE.INTRA.DIHEDRAL.0>
0.879253

>  <SCORE.INTRA.POLAR>
0

>  <SCORE.INTRA.POLAR.0>
0

>  <SCORE.INTRA.REPUL>
0

>  <SCORE.INTRA.REPUL.0>
0

>  <SCORE.INTRA.SOLV>
-1.43237

>  <SCORE.INTRA.SOLV.lig_0>
-32.6496

>  <SCORE.INTRA.VDW>
2.44642

>  <SCORE.INTRA.VDW.0>
-0.0300844

>  <SCORE.INTRA.norm>
0.499873

>  <SCORE.RESTR>
0

>  <SCORE.RESTR.CAVITY>
0

>  <SCORE.RESTR.norm>
0

>  <SCORE.SYSTEM>
-17.4707

>  <SCORE.SYSTEM.CONST>
0

>  <SCORE.SYSTEM.DIHEDRAL>
5.07932

>  <SCORE.SYSTEM.POLAR>
-2.96747

>  <SCORE.SYSTEM.SOLV>
-0.179869

>  <SCORE.SYSTEM.VDW>
-3.38871

>  <SCORE.SYSTEM.norm>
-1.74707

>  <SCORE.heavy>
10

>  <SCORE.norm>
-4.67522

$$$$
P117751977
 OpenBabel12072022113D
libRbt.so/2013.1/901 2013/11/27
 13 13  0  0  0  0  0  0  0  0999 V2000
  -25.5404   15.5367  -16.1306 C   0  0  0  0  0  0  0  0  0  0  0  0
  -25.6556   14.1380  -16.7070 C   0  0  0  0  0  0  0  0  0  0  0  0
  -27.0718   13.7398  -16.4965 N   0  3  0  0  0  0  0  0  0  0  0  0
  -27.5120   13.6203  -17.4554 H   0  0  0  0  0  0  0  0  0  0  0  0
  -27.2292   12.8523  -16.0150 H   0  0  0  0  0  0  0  0  0  0  0  0
  -27.8135   14.9020  -15.8923 C   0  0  1  0  0  0  0  0  0  0  0  0
  -26.9417   16.1135  -16.2595 C   0  0  1  0  0  0  0  0  0  0  0  0
  -27.1054   17.1869  -15.3477 O   0  0  0  0  0  0  0  0  0  0  0  0
  -29.2599   14.9607  -16.3424 C   0  0  0  0  0  0  0  0  0  0  0  0
  -29.7300   16.3732  -16.0653 C   0  0  0  0  0  0  0  0  0  0  0  0
  -29.6407   17.1240  -17.0874 O   0  0  0  0  0  0  0  0  0  0  0  0
  -30.0057   16.6299  -14.8734 O   0  5  0  0  0  0  0  0  0  0  0  0
  -26.4745   17.8850  -15.6156 H   0  0  0  0  0  0  0  0  0  0  0  0
  1  2  1  0  0  0  0
  1  7  1  0  0  0  0
  2  3  1  0  0  0  0
  3  4  1  0  0  0  0
  3  5  1  0  0  0  0
  3  6  1  0  0  0  0
  6  9  1  6  0  0  0
  6  7  1  0  0  0  0
  7  8  1  1  0  0  0
  8 13  1  0  0  0  0
  9 10  1  0  0  0  0
 10 11  2  0  0  0  0
 10 12  1  0  0  0  0
M  CHG  2   3   1  12  -1
M  END
>  <CHROM.0>
-59.73618225,177.43206968,-62.44335264,-42.29603222,-176.44454662,-60.99299869
-62.86947471,-57.77835468,-168.15816710

>  <CHROM.1>
-161.18782853,63.72739573,95.71245022,-27.88343124,15.69823203,-16.11227534
-0.52434537,-0.02352279,0.26780365

>  <Name>
P117751977

>  <RI>
0

>  <Rbt.Current_Directory>
/home/fstefaniak/projects/zuza/docking/adenine/4TZX

>  <Rbt.Executable>
rbdock ($Id: //depot/dev/client3/rdock/2013.1/src/exe/rbdock.cxx#4 $)

>  <Rbt.Library>
libRbt.so (2013.1, Build901 2013/11/27)

>  <Rbt.Parameter_File>
/home/fstefaniak/progs/rDock//data/scripts/dock_solv.prm

>  <Rbt.Receptor>
4tzx.prm

>  <SCORE>
-45.4119

>  <SCORE.INTER>
-22.917

>  <SCORE.INTER.CONST>
1

>  <SCORE.INTER.POLAR>
-3.49672

>  <SCORE.INTER.ROT>
2

>  <SCORE.INTER.SOLV>
16.5302

>  <SCORE.INTER.VDW>
-14.0657

>  <SCORE.INTER.norm>
-2.2917

>  <SCORE.INTRA>
-1.56306

>  <SCORE.INTRA.DIHEDRAL>
0.032454

>  <SCORE.INTRA.DIHEDRAL.0>
2.52013

>  <SCORE.INTRA.POLAR>
0.41706

>  <SCORE.INTRA.POLAR.0>
-0.41706

>  <SCORE.INTRA.REPUL>
0

>  <SCORE.INTRA.REPUL.0>
0

>  <SCORE.INTRA.SOLV>
-4.3656

>  <SCORE.INTRA.SOLV.lig_0>
-45.1374

>  <SCORE.INTRA.VDW>
-0.81449

>  <SCORE.INTRA.VDW.0>
0.808091

>  <SCORE.INTRA.norm>
-0.156306

>  <SCORE.RESTR>
0

>  <SCORE.RESTR.CAVITY>
0

>  <SCORE.RESTR.norm>
0

>  <SCORE.SYSTEM>
-20.9318

>  <SCORE.SYSTEM.CONST>
0

>  <SCORE.SYSTEM.DIHEDRAL>
4.31943

>  <SCORE.SYSTEM.POLAR>
-3.06764

>  <SCORE.SYSTEM.SOLV>
-0.000296117

>  <SCORE.SYSTEM.VDW>
-5.1688

>  <SCORE.SYSTEM.norm>
-2.09318

>  <SCORE.heavy>
10

>  <SCORE.norm>
-4.54119

$$$$
P117751977
 OpenBabel12072022113D
libRbt.so/2013.1/901 2013/11/27
 13 13  0  0  0  0  0  0  0  0999 V2000
  -25.7960   14.0968  -16.6445 C   0  0  0  0  0  0  0  0  0  0  0  0
  -27.0665   13.2762  -16.7644 C   0  0  0  0  0  0  0  0  0  0  0  0
  -28.1688   14.1979  -16.3852 N   0  3  0  0  0  0  0  0  0  0  0  0
  -28.7795   14.3298  -17.2439 H   0  0  0  0  0  0  0  0  0  0  0  0
  -28.8019   13.8741  -15.6513 H   0  0  0  0  0  0  0  0  0  0  0  0
  -27.5883   15.5635  -16.1320 C   0  0  1  0  0  0  0  0  0  0  0  0
  -26.2487   15.5286  -16.8847 C   0  0  1  0  0  0  0  0  0  0  0  0
  -25.3024   16.4304  -16.3354 O   0  0  0  0  0  0  0  0  0  0  0  0
  -28.5416   16.6769  -16.5190 C   0  0  0  0  0  0  0  0  0  0  0  0
  -29.6970   16.6000  -15.5432 C   0  0  0  0  0  0  0  0  0  0  0  0
  -30.7857   17.0230  -16.0454 O   0  0  0  0  0  0  0  0  0  0  0  0
  -29.4004   16.2672  -14.3754 O   0  5  0  0  0  0  0  0  0  0  0  0
  -25.6253   17.3332  -16.5296 H   0  0  0  0  0  0  0  0  0  0  0  0
  1  2  1  0  0  0  0
  1  7  1  0  0  0  0
  2  3  1  0  0  0  0
  3  4  1  0  0  0  0
  3  5  1  0  0  0  0
  3  6  1  0  0  0  0
  6  9  1  6  0  0  0
  6  7  1  0  0  0  0
  7  8  1  1  0  0  0
  8 13  1  0  0  0  0
  9 10  1  0  0  0  0
 10 11  2  0  0  0  0
 10 12  1  0  0  0  0
M  CHG  2   3   1  12  -1
M  END
>  <CHROM.0>
-57.36740040,-59.97293576,-64.62525427,-43.06094412,-57.15530545,-65.21864173
-68.70246821,-58.20376803,-168.72118365

>  <CHROM.1>
67.65111877,178.85910743,-151.13894341,-27.87042773,15.58516770,-16.14964522
0.48125776,-0.19832811,-2.98469978

>  <Name>
P117751977

>  <RI>
0

>  <Rbt.Current_Directory>
/home/fstefaniak/projects/zuza/docking/adenine/4TZX

>  <Rbt.Executable>
rbdock ($Id: //depot/dev/client3/rdock/2013.1/src/exe/rbdock.cxx#4 $)

>  <Rbt.Library>
libRbt.so (2013.1, Build901 2013/11/27)

>  <Rbt.Parameter_File>
/home/fstefaniak/progs/rDock//data/scripts/dock_solv.prm

>  <Rbt.Receptor>
4tzx.prm

>  <SCORE>
-44.3424

>  <SCORE.INTER>
-21.6338

>  <SCORE.INTER.CONST>
1

>  <SCORE.INTER.POLAR>
-3.45948

>  <SCORE.INTER.ROT>
2

>  <SCORE.INTER.SOLV>
20.5976

>  <SCORE.INTER.VDW>
-14.6901

>  <SCORE.INTER.norm>
-2.16338

>  <SCORE.INTRA>
-1.59394

>  <SCORE.INTRA.DIHEDRAL>
-0.998679

>  <SCORE.INTRA.DIHEDRAL.0>
2.52013

>  <SCORE.INTRA.POLAR>
0.41706

>  <SCORE.INTRA.POLAR.0>
-0.41706

>  <SCORE.INTRA.REPUL>
0

>  <SCORE.INTRA.REPUL.0>
0

>  <SCORE.INTRA.SOLV>
-3.44547

>  <SCORE.INTRA.SOLV.lig_0>
-45.1374

>  <SCORE.INTRA.VDW>
-0.789874

>  <SCORE.INTRA.VDW.0>
0.808091

>  <SCORE.INTRA.norm>
-0.159394

>  <SCORE.RESTR>
0

>  <SCORE.RESTR.CAVITY>
0

>  <SCORE.RESTR.norm>
0

>  <SCORE.SYSTEM>
-21.1147

>  <SCORE.SYSTEM.CONST>
0

>  <SCORE.SYSTEM.DIHEDRAL>
4.61595

>  <SCORE.SYSTEM.POLAR>
-3.07602

>  <SCORE.SYSTEM.SOLV>
0.184323

>  <SCORE.SYSTEM.VDW>
-5.42316

>  <SCORE.SYSTEM.norm>
-2.11147

>  <SCORE.heavy>
10

>  <SCORE.norm>
-4.43424

$$$$
P117751977
 OpenBabel12072022113D
libRbt.so/2013.1/901 2013/11/27
 13 13  0  0  0  0  0  0  0  0999 V2000
  -26.7952   15.7038  -16.0302 C   0  0  0  0  0  0  0  0  0  0  0  0
  -27.3750   14.4342  -16.6248 C   0  0  0  0  0  0  0  0  0  0  0  0
  -28.8201   14.4609  -16.2794 N   0  3  0  0  0  0  0  0  0  0  0  0
  -29.3613   14.5279  -17.1907 H   0  0  0  0  0  0  0  0  0  0  0  0
  -29.1911   13.6350  -15.8056 H   0  0  0  0  0  0  0  0  0  0  0  0
  -29.1224   15.7562  -15.5748 C   0  0  1  0  0  0  0  0  0  0  0  0
  -27.9657   16.6743  -16.0007 C   0  0  1  0  0  0  0  0  0  0  0  0
  -27.7174   17.6980  -15.0517 O   0  0  0  0  0  0  0  0  0  0  0  0
  -30.5199   16.2629  -15.8724 C   0  0  0  0  0  0  0  0  0  0  0  0
  -30.7247   17.4759  -14.9894 C   0  0  0  0  0  0  0  0  0  0  0  0
  -30.3832   17.2620  -13.7836 O   0  0  0  0  0  0  0  0  0  0  0  0
  -31.3070   18.4444  -15.5236 O   0  5  0  0  0  0  0  0  0  0  0  0
  -27.3331   18.4522  -15.5422 H   0  0  0  0  0  0  0  0  0  0  0  0
  1  2  1  0  0  0  0
  1  7  1  0  0  0  0
  2  3  1  0  0  0  0
  3  4  1  0  0  0  0
  3  5  1  0  0  0  0
  3  6  1  0  0  0  0
  6  9  1  6  0  0  0
  6  7  1  0  0  0  0
  7  8  1  1  0  0  0
  8 13  1  0  0  0  0
  9 10  1  0  0  0  0
 10 11  2  0  0  0  0
 10 12  1  0  0  0  0
M  CHG  2   3   1  12  -1
M  END
>  <CHROM.0>
-60.13284220,-57.81422490,-62.66003234,-43.31731335,-173.98412107,-62.96091549
-67.49532982,-61.10765010,-166.83919616

>  <CHROM.1>
174.17398797,95.20346149,-47.81299056,-29.07798792,16.44377462,-15.55862591
-0.74001342,0.05466956,0.40687222

>  <Name>
P117751977

>  <RI>
0

>  <Rbt.Current_Directory>
/home/fstefaniak/projects/zuza/docking/adenine/4TZX

>  <Rbt.Executable>
rbdock ($Id: //depot/dev/client3/rdock/2013.1/src/exe/rbdock.cxx#4 $)

>  <Rbt.Library>
libRbt.so (2013.1, Build901 2013/11/27)

>  <Rbt.Parameter_File>
/home/fstefaniak/progs/rDock//data/scripts/dock_solv.prm

>  <Rbt.Receptor>
4tzx.prm

>  <SCORE>
-43.8683

>  <SCORE.INTER>
-22.1932

>  <SCORE.INTER.CONST>
1

>  <SCORE.INTER.POLAR>
-4.49118

>  <SCORE.INTER.ROT>
2

>  <SCORE.INTER.SOLV>
24.0151

>  <SCORE.INTER.VDW>
-12.7632

>  <SCORE.INTER.norm>
-2.21932

>  <SCORE.INTRA>
-0.538265

>  <SCORE.INTRA.DIHEDRAL>
3.29359

>  <SCORE.INTRA.DIHEDRAL.0>
2.52013

>  <SCORE.INTRA.POLAR>
0.41706

>  <SCORE.INTRA.POLAR.0>
-0.41706

>  <SCORE.INTRA.REPUL>
0

>  <SCORE.INTRA.REPUL.0>
0

>  <SCORE.INTRA.SOLV>
-5.23588

>  <SCORE.INTRA.SOLV.lig_0>
-45.1374

>  <SCORE.INTRA.VDW>
-0.985127

>  <SCORE.INTRA.VDW.0>
0.808091

>  <SCORE.INTRA.norm>
-0.0538265

>  <SCORE.RESTR>
0

>  <SCORE.RESTR.CAVITY>
0

>  <SCORE.RESTR.norm>
0

>  <SCORE.SYSTEM>
-21.1368

>  <SCORE.SYSTEM.CONST>
0

>  <SCORE.SYSTEM.DIHEDRAL>
4.64718

>  <SCORE.SYSTEM.POLAR>
-3.04873

>  <SCORE.SYSTEM.SOLV>
-0.00220622

>  <SCORE.SYSTEM.VDW>
-5.47711

>  <SCORE.SYSTEM.norm>
-2.11368

>  <SCORE.heavy>
10

>  <SCORE.norm>
-4.38683

$$$$
P118224946
 OpenBabel12072022113D
libRbt.so/2013.1/901 2013/11/27
 16 16  0  0  0  0  0  0  0  0999 V2000
  -30.5901   18.7086  -17.9416 C   0  0  0  0  0  0  0  0  0  0  0  0
  -29.8798   17.5819  -18.3230 C   0  0  0  0  0  0  0  0  0  0  0  0
  -29.5862   16.5892  -17.3818 C   0  0  0  0  0  0  0  0  0  0  0  0
  -29.9949   16.6563  -16.0358 C   0  0  0  0  0  0  0  0  0  0  0  0
  -30.7732   17.7995  -15.6837 C   0  0  0  0  0  0  0  0  0  0  0  0
  -31.0240   18.8230  -16.6253 C   0  0  0  0  0  0  0  0  0  0  0  0
  -31.2389   17.9250  -14.2683 C   0  0  0  0  0  0  0  0  0  0  0  0
  -30.4793   17.7136  -13.1846 N   0  3  0  0  0  0  0  0  0  0  0  0
  -30.9486   17.7678  -12.2861 H   0  0  0  0  0  0  0  0  0  0  0  0
  -29.1072   17.5199  -13.2962 N   0  0  0  0  0  0  0  0  0  0  0  0
  -32.4873   18.3191  -14.1025 N   0  0  0  0  0  0  0  0  0  0  0  0
  -29.6590   15.7622  -15.1848 O   0  5  0  0  0  0  0  0  0  0  0  0
  -28.6272   18.4187  -13.4266 H   0  0  0  0  0  0  0  0  0  0  0  0
  -28.7391   17.0663  -12.4588 H   0  0  0  0  0  0  0  0  0  0  0  0
  -32.6245   18.7405  -13.1615 H   0  0  0  0  0  0  0  0  0  0  0  0
  -33.2893   17.9399  -14.5628 H   0  0  0  0  0  0  0  0  0  0  0  0
  1  2  2  0  0  0  0
  1  6  1  0  0  0  0
  2  3  1  0  0  0  0
  3  4  2  0  0  0  0
  4  5  1  0  0  0  0
  4 12  1  0  0  0  0
  5  6  2  0  0  0  0
  5  7  1  0  0  0  0
  7  8  2  0  0  0  0
  7 11  1  0  0  0  0
  8  9  1  0  0  0  0
  8 10  1  0  0  0  0
 10 13  1  0  0  0  0
 10 14  1  0  0  0  0
 11 15  1  0  0  0  0
 11 16  1  0  0  0  0
M  CHG  2   8   1  12  -1
M  END
>  <CHROM.0>
-62.80861799,-66.19787045,-61.40928672,-42.75078878,-58.84685755,-66.69974939
-69.37554947,-63.66465410,-169.24460776

>  <CHROM.1>
45.37258427,-157.31894757,78.76804711,-30.43674951,17.56698894,-15.51273384
1.41039781,0.73933408,-1.46736395

>  <Name>
P118224946

>  <RI>
0

>  <Rbt.Current_Directory>
/home/fstefaniak/projects/zuza/docking/adenine/4TZX

>  <Rbt.Executable>
rbdock ($Id: //depot/dev/client3/rdock/2013.1/src/exe/rbdock.cxx#4 $)

>  <Rbt.Library>
libRbt.so (2013.1, Build901 2013/11/27)

>  <Rbt.Parameter_File>
/home/fstefaniak/progs/rDock//data/scripts/dock_solv.prm

>  <Rbt.Receptor>
4tzx.prm

>  <SCORE>
-55.7033

>  <SCORE.INTER>
-35.067

>  <SCORE.INTER.CONST>
1

>  <SCORE.INTER.POLAR>
-5.69933

>  <SCORE.INTER.ROT>
3

>  <SCORE.INTER.SOLV>
27.7222

>  <SCORE.INTER.VDW>
-19.221

>  <SCORE.INTER.norm>
-3.18791

>  <SCORE.INTRA>
0.430769

>  <SCORE.INTRA.DIHEDRAL>
1.60597

>  <SCORE.INTRA.DIHEDRAL.0>
6.24323

>  <SCORE.INTRA.POLAR>
0

>  <SCORE.INTRA.POLAR.0>
0

>  <SCORE.INTRA.REPUL>
0

>  <SCORE.INTRA.REPUL.0>
0

>  <SCORE.INTRA.SOLV>
1.81885

>  <SCORE.INTRA.SOLV.lig_0>
-54.8477

>  <SCORE.INTRA.VDW>
-1.28164

>  <SCORE.INTRA.VDW.0>
0.0998396

>  <SCORE.INTRA.norm>
0.0391608

>  <SCORE.RESTR>
0

>  <SCORE.RESTR.CAVITY>
0

>  <SCORE.RESTR.norm>
0

>  <SCORE.SYSTEM>
-21.067

>  <SCORE.SYSTEM.CONST>
0

>  <SCORE.SYSTEM.DIHEDRAL>
4.85932

>  <SCORE.SYSTEM.POLAR>
-3.03907

>  <SCORE.SYSTEM.SOLV>
0.158332

>  <SCORE.SYSTEM.VDW>
-5.58701

>  <SCORE.SYSTEM.norm>
-1.91518

>  <SCORE.heavy>
11

>  <SCORE.norm>
-5.06394

$$$$
P118224946
 OpenBabel12072022113D
libRbt.so/2013.1/901 2013/11/27
 16 16  0  0  0  0  0  0  0  0999 V2000
  -30.6268   18.6756  -17.9621 C   0  0  0  0  0  0  0  0  0  0  0  0
  -29.8671   17.5739  -18.3207 C   0  0  0  0  0  0  0  0  0  0  0  0
  -29.5292   16.6152  -17.3592 C   0  0  0  0  0  0  0  0  0  0  0  0
  -29.9400   16.6924  -16.0144 C   0  0  0  0  0  0  0  0  0  0  0  0
  -30.7683   17.8069  -15.6853 C   0  0  0  0  0  0  0  0  0  0  0  0
  -31.0648   18.7982  -16.6479 C   0  0  0  0  0  0  0  0  0  0  0  0
  -31.2387   17.9413  -14.2723 C   0  0  0  0  0  0  0  0  0  0  0  0
  -30.4829   17.7354  -13.1848 N   0  3  0  0  0  0  0  0  0  0  0  0
  -30.9552   17.7955  -12.2882 H   0  0  0  0  0  0  0  0  0  0  0  0
  -29.1107   17.5395  -13.2907 N   0  0  0  0  0  0  0  0  0  0  0  0
  -32.4871   18.3378  -14.1130 N   0  0  0  0  0  0  0  0  0  0  0  0
  -29.5643   15.8322  -15.1453 O   0  5  0  0  0  0  0  0  0  0  0  0
  -28.6355   18.4281  -13.4905 H   0  0  0  0  0  0  0  0  0  0  0  0
  -28.7354   17.1507  -12.4244 H   0  0  0  0  0  0  0  0  0  0  0  0
  -32.6380   18.7235  -13.1589 H   0  0  0  0  0  0  0  0  0  0  0  0
  -33.2834   17.9825  -14.6016 H   0  0  0  0  0  0  0  0  0  0  0  0
  1  2  2  0  0  0  0
  1  6  1  0  0  0  0
  2  3  1  0  0  0  0
  3  4  2  0  0  0  0
  4  5  1  0  0  0  0
  4 12  1  0  0  0  0
  5  6  2  0  0  0  0
  5  7  1  0  0  0  0
  7  8  2  0  0  0  0
  7 11  1  0  0  0  0
  8  9  1  0  0  0  0
  8 10  1  0  0  0  0
 10 13  1  0  0  0  0
 10 14  1  0  0  0  0
 11 15  1  0  0  0  0
 11 16  1  0  0  0  0
M  CHG  2   8   1  12  -1
M  END
>  <CHROM.0>
-61.10060875,-59.93334370,-65.49353281,-42.41881782,-55.65358229,-53.02704110
-63.46739648,-65.31354730,-168.91716001

>  <CHROM.1>
42.60362746,-160.02146931,74.80169373,-30.42339771,17.58226244,-15.50977919
1.41721881,0.70654967,-1.47942736

>  <Name>
P118224946

>  <RI>
0

>  <Rbt.Current_Directory>
/home/fstefaniak/projects/zuza/docking/adenine/4TZX

>  <Rbt.Executable>
rbdock ($Id: //depot/dev/client3/rdock/2013.1/src/exe/rbdock.cxx#4 $)

>  <Rbt.Library>
libRbt.so (2013.1, Build901 2013/11/27)

>  <Rbt.Parameter_File>
/home/fstefaniak/progs/rDock//data/scripts/dock_solv.prm

>  <Rbt.Receptor>
4tzx.prm

>  <SCORE>
-55.5459

>  <SCORE.INTER>
-35.0633

>  <SCORE.INTER.CONST>
1

>  <SCORE.INTER.POLAR>
-5.68979

>  <SCORE.INTER.ROT>
3

>  <SCORE.INTER.SOLV>
27.3102

>  <SCORE.INTER.VDW>
-19.1129

>  <SCORE.INTER.norm>
-3.18757

>  <SCORE.INTRA>
0.465116

>  <SCORE.INTRA.DIHEDRAL>
1.00208

>  <SCORE.INTRA.DIHEDRAL.0>
6.24323

>  <SCORE.INTRA.POLAR>
0

>  <SCORE.INTRA.POLAR.0>
0

>  <SCORE.INTRA.REPUL>
0

>  <SCORE.INTRA.REPUL.0>
0

>  <SCORE.INTRA.SOLV>
2.00693

>  <SCORE.INTRA.SOLV.lig_0>
-54.8477

>  <SCORE.INTRA.VDW>
-1.03939

>  <SCORE.INTRA.VDW.0>
0.0998396

>  <SCORE.INTRA.norm>
0.0422833

>  <SCORE.RESTR>
0

>  <SCORE.RESTR.CAVITY>
0

>  <SCORE.RESTR.norm>
0

>  <SCORE.SYSTEM>
-20.9477

>  <SCORE.SYSTEM.CONST>
0

>  <SCORE.SYSTEM.DIHEDRAL>
4.67567

>  <SCORE.SYSTEM.POLAR>
-3.09158

>  <SCORE.SYSTEM.SOLV>
0.203144

>  <SCORE.SYSTEM.VDW>
-5.28616

>  <SCORE.SYSTEM.norm>
-1.90434

>  <SCORE.heavy>
11

>  <SCORE.norm>
-5.04962

$$$$
P118224946
 OpenBabel12072022113D
libRbt.so/2013.1/901 2013/11/27
 16 16  0  0  0  0  0  0  0  0999 V2000
  -30.5971   18.6832  -17.9477 C   0  0  0  0  0  0  0  0  0  0  0  0
  -29.8617   17.5697  -18.3200 C   0  0  0  0  0  0  0  0  0  0  0  0
  -29.5466   16.5910  -17.3709 C   0  0  0  0  0  0  0  0  0  0  0  0
  -29.9576   16.6596  -16.0257 C   0  0  0  0  0  0  0  0  0  0  0  0
  -30.7614   17.7878  -15.6828 C   0  0  0  0  0  0  0  0  0  0  0  0
  -31.0344   18.7981  -16.6326 C   0  0  0  0  0  0  0  0  0  0  0  0
  -31.2308   17.9139  -14.2687 C   0  0  0  0  0  0  0  0  0  0  0  0
  -30.4725   17.7084  -13.1830 N   0  3  0  0  0  0  0  0  0  0  0  0
  -30.9439   17.7621  -12.2856 H   0  0  0  0  0  0  0  0  0  0  0  0
  -29.0992   17.5211  -13.2913 N   0  0  0  0  0  0  0  0  0  0  0  0
  -32.4814   18.3022  -14.1063 N   0  0  0  0  0  0  0  0  0  0  0  0
  -29.6025   15.7798  -15.1676 O   0  5  0  0  0  0  0  0  0  0  0  0
  -28.6223   18.4230  -13.4115 H   0  0  0  0  0  0  0  0  0  0  0  0
  -28.7324   17.0612  -12.4568 H   0  0  0  0  0  0  0  0  0  0  0  0
  -32.6276   18.7059  -13.1589 H   0  0  0  0  0  0  0  0  0  0  0  0
  -33.2786   17.9300  -14.5805 H   0  0  0  0  0  0  0  0  0  0  0  0
  1  2  2  0  0  0  0
  1  6  1  0  0  0  0
  2  3  1  0  0  0  0
  3  4  2  0  0  0  0
  4  5  1  0  0  0  0
  4 12  1  0  0  0  0
  5  6  2  0  0  0  0
  5  7  1  0  0  0  0
  7  8  2  0  0  0  0
  7 11  1  0  0  0  0
  8  9  1  0  0  0  0
  8 10  1  0  0  0  0
 10 13  1  0  0  0  0
 10 14  1  0  0  0  0
 11 15  1  0  0  0  0
 11 16  1  0  0  0  0
M  CHG  2   8   1  12  -1
M  END
>  <CHROM.0>
-60.39839010,-64.45703311,-70.99921507,-43.44248204,-179.47418244,-61.31688422
-166.99740203,-64.13876648,-167.50331904

>  <CHROM.1>
44.31850190,-158.56014789,79.42677878,-30.42067268,17.55980597,-15.50973142
1.41282196,0.72146870,-1.47142176

>  <Name>
P118224946

>  <RI>
0

>  <Rbt.Current_Directory>
/home/fstefaniak/projects/zuza/docking/adenine/4TZX

>  <Rbt.Executable>
rbdock ($Id: //depot/dev/client3/rdock/2013.1/src/exe/rbdock.cxx#4 $)

>  <Rbt.Library>
libRbt.so (2013.1, Build901 2013/11/27)

>  <Rbt.Parameter_File>
/home/fstefaniak/progs/rDock//data/scripts/dock_solv.prm

>  <Rbt.Receptor>
4tzx.prm

>  <SCORE>
-55.3161

>  <SCORE.INTER>
-35.1273

>  <SCORE.INTER.CONST>
1

>  <SCORE.INTER.POLAR>
-5.69939

>  <SCORE.INTER.ROT>
3

>  <SCORE.INTER.SOLV>
27.5795

>  <SCORE.INTER.VDW>
-19.2134

>  <SCORE.INTER.norm>
-3.19339

>  <SCORE.INTRA>
0.447457

>  <SCORE.INTRA.DIHEDRAL>
1.37108

>  <SCORE.INTRA.DIHEDRAL.0>
6.24323

>  <SCORE.INTRA.POLAR>
0

>  <SCORE.INTRA.POLAR.0>
0

>  <SCORE.INTRA.REPUL>
0

>  <SCORE.INTRA.REPUL.0>
0

>  <SCORE.INTRA.SOLV>
1.89805

>  <SCORE.INTRA.SOLV.lig_0>
-54.8477

>  <SCORE.INTRA.VDW>
-1.18711

>  <SCORE.INTRA.VDW.0>
0.0998396

>  <SCORE.INTRA.norm>
0.0406779

>  <SCORE.RESTR>
0

>  <SCORE.RESTR.CAVITY>
0

>  <SCORE.RESTR.norm>
0

>  <SCORE.SYSTEM>
-20.6363

>  <SCORE.SYSTEM.CONST>
0

>  <SCORE.SYSTEM.DIHEDRAL>
5.5037

>  <SCORE.SYSTEM.POLAR>
-3.0285

>  <SCORE.SYSTEM.SOLV>
-0.035302

>  <SCORE.SYSTEM.VDW>
-5.4853

>  <SCORE.SYSTEM.norm>
-1.87602

>  <SCORE.heavy>
11

>  <SCORE.norm>
-5.02874

$$$$
P121825487
 OpenBabel12072022113D
libRbt.so/2013.1/901 2013/11/27
  9  9  0  0  0  0  0  0  0  0999 V2000
  -31.1940   19.3853  -17.9328 C   0  0  0  0  0  0  0  0  0  0  0  0
  -30.7215   18.8038  -19.1360 C   0  0  0  0  0  0  0  0  0  0  0  0
  -29.8956   17.7551  -18.7866 C   0  0  0  0  0  0  0  0  0  0  0  0
  -29.8622   17.6946  -17.4257 N   0  0  0  0  0  0  0  0  0  0  0  0
  -30.6420   18.6733  -16.8864 C   0  0  0  0  0  0  0  0  0  0  0  0
  -29.1054   16.7285  -16.7413 N   0  0  0  0  0  0  0  0  0  0  0  0
  -29.1518   16.6756  -15.4131 C   0  0  0  0  0  0  0  0  0  0  0  0
  -29.1771   16.6113  -14.2579 N   0  0  0  0  0  0  0  0  0  0  0  0
  -28.5420   16.0965  -17.3083 H   0  0  0  0  0  0  0  0  0  0  0  0
  1  2  1  0  0  0  0
  1  5  2  0  0  0  0
  2  3  2  0  0  0  0
  3  4  1  0  0  0  0
  4  5  1  0  0  0  0
  4  6  1  0  0  0  0
  6  7  1  0  0  0  0
  6  9  1  0  0  0  0
  7  8  3  0  0  0  0
M  END
>  <CHROM.0>
-59.48964802,-62.92717303,-66.33313880,-43.03792162,-175.29451744,-61.82510903
-66.65601437,-59.06728139,-168.85454958

>  <CHROM.1>
-177.11354306,-29.94669213,17.76392860,-17.06455587,2.17987484,0.89997091
-1.52172685

>  <Name>
P121825487

>  <RI>
0

>  <Rbt.Current_Directory>
/home/fstefaniak/projects/zuza/docking/adenine/4TZX

>  <Rbt.Executable>
rbdock ($Id: //depot/dev/client3/rdock/2013.1/src/exe/rbdock.cxx#4 $)

>  <Rbt.Library>
libRbt.so (2013.1, Build901 2013/11/27)

>  <Rbt.Parameter_File>
/home/fstefaniak/progs/rDock//data/scripts/dock_solv.prm

>  <Rbt.Receptor>
4tzx.prm

>  <SCORE>
-43.9199

>  <SCORE.INTER>
-22.5934

>  <SCORE.INTER.CONST>
1

>  <SCORE.INTER.POLAR>
-2.06956

>  <SCORE.INTER.ROT>
1

>  <SCORE.INTER.SOLV>
9.56002

>  <SCORE.INTER.VDW>
-15.6171

>  <SCORE.INTER.norm>
-2.82417

>  <SCORE.INTRA>
0.013829

>  <SCORE.INTRA.DIHEDRAL>
0.0319835

>  <SCORE.INTRA.DIHEDRAL.0>
2.08558e-06

>  <SCORE.INTRA.POLAR>
0

>  <SCORE.INTRA.POLAR.0>
0

>  <SCORE.INTRA.REPUL>
0

>  <SCORE.INTRA.REPUL.0>
0

>  <SCORE.INTRA.SOLV>
-0.000138944

>  <SCORE.INTRA.SOLV.lig_0>
-13.009

>  <SCORE.INTRA.VDW>
-0.00209325

>  <SCORE.INTRA.VDW.0>
0.0324262

>  <SCORE.INTRA.norm>
0.00172863

>  <SCORE.RESTR>
0

>  <SCORE.RESTR.CAVITY>
0

>  <SCORE.RESTR.norm>
0

>  <SCORE.SYSTEM>
-21.3404

>  <SCORE.SYSTEM.CONST>
0

>  <SCORE.SYSTEM.DIHEDRAL>
4.50638

>  <SCORE.SYSTEM.POLAR>
-3.05168

>  <SCORE.SYSTEM.SOLV>
0.000118767

>  <SCORE.SYSTEM.VDW>
-5.55681

>  <SCORE.SYSTEM.norm>
-2.66755

>  <SCORE.heavy>
8

>  <SCORE.norm>
-5.48999

$$$$
P121825487
 OpenBabel12072022113D
libRbt.so/2013.1/901 2013/11/27
  9  9  0  0  0  0  0  0  0  0999 V2000
  -31.0398   19.4751  -18.0122 C   0  0  0  0  0  0  0  0  0  0  0  0
  -30.6116   18.8457  -19.2078 C   0  0  0  0  0  0  0  0  0  0  0  0
  -29.8662   17.7426  -18.8450 C   0  0  0  0  0  0  0  0  0  0  0  0
  -29.8377   17.6961  -17.4834 N   0  0  0  0  0  0  0  0  0  0  0  0
  -30.5426   18.7366  -16.9568 C   0  0  0  0  0  0  0  0  0  0  0  0
  -29.1551   16.6846  -16.7867 N   0  0  0  0  0  0  0  0  0  0  0  0
  -29.1799   16.6693  -15.4570 C   0  0  0  0  0  0  0  0  0  0  0  0
  -29.1880   16.6365  -14.3002 N   0  0  0  0  0  0  0  0  0  0  0  0
  -28.6605   15.9914  -17.3463 H   0  0  0  0  0  0  0  0  0  0  0  0
  1  2  1  0  0  0  0
  1  5  2  0  0  0  0
  2  3  2  0  0  0  0
  3  4  1  0  0  0  0
  4  5  1  0  0  0  0
  4  6  1  0  0  0  0
  6  7  1  0  0  0  0
  6  9  1  0  0  0  0
  7  8  3  0  0  0  0
M  END
>  <CHROM.0>
-62.24088493,-63.23364683,-64.94450768,-43.63546973,-56.12632395,-62.01222583
-66.16420895,-61.04882980,-168.92713509

>  <CHROM.1>
-178.67570085,-29.90796182,17.78216147,-17.12288065,2.19033872,0.97543166
-1.54944653

>  <Name>
P121825487

>  <RI>
0

>  <Rbt.Current_Directory>
/home/fstefaniak/projects/zuza/docking/adenine/4TZX

>  <Rbt.Executable>
rbdock ($Id: //depot/dev/client3/rdock/2013.1/src/exe/rbdock.cxx#4 $)

>  <Rbt.Library>
libRbt.so (2013.1, Build901 2013/11/27)

>  <Rbt.Parameter_File>
/home/fstefaniak/progs/rDock//data/scripts/dock_solv.prm

>  <Rbt.Receptor>
4tzx.prm

>  <SCORE>
-43.7726

>  <SCORE.INTER>
-22.5738

>  <SCORE.INTER.CONST>
1

>  <SCORE.INTER.POLAR>
-2.0338

>  <SCORE.INTER.ROT>
1

>  <SCORE.INTER.SOLV>
9.67361

>  <SCORE.INTER.VDW>
-15.7611

>  <SCORE.INTER.norm>
-2.82173

>  <SCORE.INTRA>
0.00285751

>  <SCORE.INTRA.DIHEDRAL>
0.00661955

>  <SCORE.INTRA.DIHEDRAL.0>
2.08558e-06

>  <SCORE.INTRA.POLAR>
0

>  <SCORE.INTRA.POLAR.0>
0

>  <SCORE.INTRA.REPUL>
0

>  <SCORE.INTRA.REPUL.0>
0

>  <SCORE.INTRA.SOLV>
-2.92514e-05

>  <SCORE.INTRA.SOLV.lig_0>
-13.009

>  <SCORE.INTRA.VDW>
-0.000437641

>  <SCORE.INTRA.VDW.0>
0.0324262

>  <SCORE.INTRA.norm>
0.000357189

>  <SCORE.RESTR>
0

>  <SCORE.RESTR.CAVITY>
0

>  <SCORE.RESTR.norm>
0

>  <SCORE.SYSTEM>
-21.2016

>  <SCORE.SYSTEM.CONST>
0

>  <SCORE.SYSTEM.DIHEDRAL>
4.31986

>  <SCORE.SYSTEM.POLAR>
-3.03683

>  <SCORE.SYSTEM.SOLV>
0.181886

>  <SCORE.SYSTEM.VDW>
-5.51224

>  <SCORE.SYSTEM.norm>
-2.6502

>  <SCORE.heavy>
8

>  <SCORE.norm>
-5.47157

$$$$
P121825487
 OpenBabel12072022113D
libRbt.so/2013.1/901 2013/11/27
  9  9  0  0  0  0  0  0  0  0999 V2000
  -31.1837   19.3859  -17.9430 C   0  0  0  0  0  0  0  0  0  0  0  0
  -30.6892   18.8207  -19.1452 C   0  0  0  0  0  0  0  0  0  0  0  0
  -29.8659   17.7703  -18.7948 C   0  0  0  0  0  0  0  0  0  0  0  0
  -29.8550   17.6932  -17.4344 N   0  0  0  0  0  0  0  0  0  0  0  0
  -30.6469   18.6628  -16.8963 C   0  0  0  0  0  0  0  0  0  0  0  0
  -29.1066   16.7211  -16.7493 N   0  0  0  0  0  0  0  0  0  0  0  0
  -29.1724   16.6539  -15.4226 C   0  0  0  0  0  0  0  0  0  0  0  0
  -29.2144   16.5773  -14.2686 N   0  0  0  0  0  0  0  0  0  0  0  0
  -28.5339   16.0960  -17.3147 H   0  0  0  0  0  0  0  0  0  0  0  0
  1  2  1  0  0  0  0
  1  5  2  0  0  0  0
  2  3  2  0  0  0  0
  3  4  1  0  0  0  0
  4  5  1  0  0  0  0
  4  6  1  0  0  0  0
  6  7  1  0  0  0  0
  6  9  1  0  0  0  0
  7  8  3  0  0  0  0
M  END
>  <CHROM.0>
-59.47495608,-64.23963312,-63.70578462,-43.72242668,-58.39907874,-61.58215223
-67.75972796,-58.89304795,-168.87850727

>  <CHROM.1>
-177.28749798,-29.94486314,17.75858018,-17.07381023,2.15503266,0.89587649
-1.49090842

>  <Name>
P121825487

>  <RI>
0

>  <Rbt.Current_Directory>
/home/fstefaniak/projects/zuza/docking/adenine/4TZX

>  <Rbt.Executable>
rbdock ($Id: //depot/dev/client3/rdock/2013.1/src/exe/rbdock.cxx#4 $)

>  <Rbt.Library>
libRbt.so (2013.1, Build901 2013/11/27)

>  <Rbt.Parameter_File>
/home/fstefaniak/progs/rDock//data/scripts/dock_solv.prm

>  <Rbt.Receptor>
4tzx.prm

>  <SCORE>
-43.7565

>  <SCORE.INTER>
-22.5973

>  <SCORE.INTER.CONST>
1

>  <SCORE.INTER.POLAR>
-2.06539

>  <SCORE.INTER.ROT>
1

>  <SCORE.INTER.SOLV>
9.58209

>  <SCORE.INTER.VDW>
-15.6409

>  <SCORE.INTER.norm>
-2.82466

>  <SCORE.INTRA>
0.0122008

>  <SCORE.INTRA.DIHEDRAL>
0.0282206

>  <SCORE.INTRA.DIHEDRAL.0>
2.08558e-06

>  <SCORE.INTRA.POLAR>
0

>  <SCORE.INTRA.POLAR.0>
0

>  <SCORE.INTRA.REPUL>
0

>  <SCORE.INTRA.REPUL.0>
0

>  <SCORE.INTRA.SOLV>
-0.000122707

>  <SCORE.INTRA.SOLV.lig_0>
-13.009

>  <SCORE.INTRA.VDW>
-0.00184813

>  <SCORE.INTRA.VDW.0>
0.0324262

>  <SCORE.INTRA.norm>
0.0015251

>  <SCORE.RESTR>
0

>  <SCORE.RESTR.CAVITY>
0

>  <SCORE.RESTR.norm>
0

>  <SCORE.SYSTEM>
-21.1714

>  <SCORE.SYSTEM.CONST>
0

>  <SCORE.SYSTEM.DIHEDRAL>
4.31464

>  <SCORE.SYSTEM.POLAR>
-3.04436

>  <SCORE.SYSTEM.SOLV>
0.185616

>  <SCORE.SYSTEM.VDW>
-5.4665

>  <SCORE.SYSTEM.norm>
-2.64643

>  <SCORE.heavy>
8

>  <SCORE.norm>
-5.46956

$$$$
P121991601
 OpenBabel12072022113D
libRbt.so/2013.1/901 2013/11/27
 14 13  0  0  0  0  0  0  0  0999 V2000
  -30.3890   18.2441  -19.3825 C   0  0  0  0  0  0  0  0  0  0  0  0
  -31.1202   18.6807  -18.1126 C   0  0  1  0  0  0  0  0  0  0  0  0
  -30.6860   17.8499  -16.8902 C   0  0  0  0  0  0  0  0  0  0  0  0
  -31.4618   18.0869  -15.5790 C   0  0  0  0  0  0  0  0  0  0  0  0
  -30.8382   17.5516  -14.2948 C   0  0  0  0  0  0  0  0  0  0  0  0
  -31.2980   18.3147  -13.1258 N   0  3  0  0  0  0  0  0  0  0  0  0
  -31.1032   17.7429  -12.2729 H   0  0  0  0  0  0  0  0  0  0  0  0
  -30.7412   19.1635  -12.9593 H   0  0  0  0  0  0  0  0  0  0  0  0
  -32.2954   18.5406  -13.1254 H   0  0  0  0  0  0  0  0  0  0  0  0
  -30.8877   20.1020  -17.8633 N   0  0  0  0  0  0  0  0  0  0  0  0
  -32.5193   18.5600  -18.2738 O   0  0  0  0  0  0  0  0  0  0  0  0
  -31.6526   20.4411  -17.2644 H   0  0  0  0  0  0  0  0  0  0  0  0
  -30.0786   20.1499  -17.2281 H   0  0  0  0  0  0  0  0  0  0  0  0
  -32.7833   19.1632  -18.9963 H   0  0  0  0  0  0  0  0  0  0  0  0
  2  1  1  6  0  0  0
  2  3  1  0  0  0  0
  2 10  1  0  0  0  0
  2 11  1  0  0  0  0
  3  4  1  0  0  0  0
  4  5  1  0  0  0  0
  5  6  1  0  0  0  0
  6  7  1  0  0  0  0
  6  8  1  0  0  0  0
  6  9  1  0  0  0  0
 10 12  1  0  0  0  0
 10 13  1  0  0  0  0
 11 14  1  0  0  0  0
M  CHG  1   6   1
M  END
>  <CHROM.0>
-58.78355740,56.33970628,-44.22917726,-42.33333515,-57.34657228,59.85661771
-63.38521958,59.77626335,-168.90747359

>  <CHROM.1>
-173.47828433,157.85708609,-62.33045086,-165.03306133,154.51219249,162.14813276
-31.18160231,18.45925968,-16.64541695,-1.56321424,-1.00443260,1.72727023

>  <Name>
P121991601

>  <RI>
0

>  <Rbt.Current_Directory>
/home/fstefaniak/projects/zuza/docking/adenine/4TZX

>  <Rbt.Executable>
rbdock ($Id: //depot/dev/client3/rdock/2013.1/src/exe/rbdock.cxx#4 $)

>  <Rbt.Library>
libRbt.so (2013.1, Build901 2013/11/27)

>  <Rbt.Parameter_File>
/home/fstefaniak/progs/rDock//data/scripts/dock_solv.prm

>  <Rbt.Receptor>
4tzx.prm

>  <SCORE>
-59.9401

>  <SCORE.INTER>
-40.9277

>  <SCORE.INTER.CONST>
1

>  <SCORE.INTER.POLAR>
-7.73895

>  <SCORE.INTER.ROT>
4

>  <SCORE.INTER.SOLV>
21.4145

>  <SCORE.INTER.VDW>
-14.8935

>  <SCORE.INTER.norm>
-5.11597

>  <SCORE.INTRA>
-1.1707

>  <SCORE.INTRA.DIHEDRAL>
0.707151

>  <SCORE.INTRA.DIHEDRAL.0>
4.4784

>  <SCORE.INTRA.POLAR>
1.08249

>  <SCORE.INTRA.POLAR.0>
-1.08249

>  <SCORE.INTRA.REPUL>
0

>  <SCORE.INTRA.REPUL.0>
0

>  <SCORE.INTRA.SOLV>
-7.77959

>  <SCORE.INTRA.SOLV.lig_0>
-24.7684

>  <SCORE.INTRA.VDW>
-1.31495

>  <SCORE.INTRA.VDW.0>
1.76664

>  <SCORE.INTRA.norm>
-0.146337

>  <SCORE.RESTR>
0

>  <SCORE.RESTR.CAVITY>
0

>  <SCORE.RESTR.norm>
0

>  <SCORE.SYSTEM>
-17.8417

>  <SCORE.SYSTEM.CONST>
0

>  <SCORE.SYSTEM.DIHEDRAL>
5.28885

>  <SCORE.SYSTEM.POLAR>
-3.2139

>  <SCORE.SYSTEM.SOLV>
-0.000857501

>  <SCORE.SYSTEM.VDW>
-2.94413

>  <SCORE.SYSTEM.norm>
-2.23021

>  <SCORE.heavy>
8

>  <SCORE.norm>
-7.49252

$$$$
P121991601
 OpenBabel12072022113D
libRbt.so/2013.1/901 2013/11/27
 14 13  0  0  0  0  0  0  0  0999 V2000
  -30.3527   18.2133  -19.3604 C   0  0  0  0  0  0  0  0  0  0  0  0
  -31.1121   18.6770  -18.1170 C   0  0  1  0  0  0  0  0  0  0  0  0
  -30.7186   17.8613  -16.8709 C   0  0  0  0  0  0  0  0  0  0  0  0
  -31.6279   18.0017  -15.6338 C   0  0  0  0  0  0  0  0  0  0  0  0
  -31.1738   17.3087  -14.3538 C   0  0  0  0  0  0  0  0  0  0  0  0
  -31.2758   18.2119  -13.1989 N   0  3  0  0  0  0  0  0  0  0  0  0
  -32.2637   18.5485  -13.1416 H   0  0  0  0  0  0  0  0  0  0  0  0
  -31.1514   17.7265  -12.3005 H   0  0  0  0  0  0  0  0  0  0  0  0
  -30.6708   19.0353  -13.2425 H   0  0  0  0  0  0  0  0  0  0  0  0
  -30.8715   20.0997  -17.8836 N   0  0  0  0  0  0  0  0  0  0  0  0
  -32.5077   18.5678  -18.3129 O   0  0  0  0  0  0  0  0  0  0  0  0
  -31.6428   20.4534  -17.3016 H   0  0  0  0  0  0  0  0  0  0  0  0
  -30.0721   20.1497  -17.2364 H   0  0  0  0  0  0  0  0  0  0  0  0
  -32.7513   19.1854  -19.0304 H   0  0  0  0  0  0  0  0  0  0  0  0
  2  1  1  6  0  0  0
  2  3  1  0  0  0  0
  2 10  1  0  0  0  0
  2 11  1  0  0  0  0
  3  4  1  0  0  0  0
  4  5  1  0  0  0  0
  5  6  1  0  0  0  0
  6  7  1  0  0  0  0
  6  8  1  0  0  0  0
  6  9  1  0  0  0  0
 10 12  1  0  0  0  0
 10 13  1  0  0  0  0
 11 14  1  0  0  0  0
M  CHG  1   6   1
M  END
>  <CHROM.0>
-58.38209684,-63.68900686,61.16068853,-44.29013953,-177.16240462,-65.32836162
55.44353710,-61.38910720,-167.62134335

>  <CHROM.1>
-166.45218367,158.46900203,-64.26882141,-174.14030109,132.72559162,56.35200418
-31.23216225,18.40556456,-16.67386723,-1.42540886,-1.33932119,1.89708032

>  <Name>
P121991601

>  <RI>
0

>  <Rbt.Current_Directory>
/home/fstefaniak/projects/zuza/docking/adenine/4TZX

>  <Rbt.Executable>
rbdock ($Id: //depot/dev/client3/rdock/2013.1/src/exe/rbdock.cxx#4 $)

>  <Rbt.Library>
libRbt.so (2013.1, Build901 2013/11/27)

>  <Rbt.Parameter_File>
/home/fstefaniak/progs/rDock//data/scripts/dock_solv.prm

>  <Rbt.Receptor>
4tzx.prm

>  <SCORE>
-58.5163

>  <SCORE.INTER>
-39.2157

>  <SCORE.INTER.CONST>
1

>  <SCORE.INTER.POLAR>
-7.68852

>  <SCORE.INTER.ROT>
4

>  <SCORE.INTER.SOLV>
21.1357

>  <SCORE.INTER.VDW>
-13.8272

>  <SCORE.INTER.norm>
-4.90196

>  <SCORE.INTRA>
-0.0998946

>  <SCORE.INTRA.DIHEDRAL>
2.52262

>  <SCORE.INTRA.DIHEDRAL.0>
4.4784

>  <SCORE.INTRA.POLAR>
1.08249

>  <SCORE.INTRA.POLAR.0>
-1.08249

>  <SCORE.INTRA.REPUL>
0

>  <SCORE.INTRA.REPUL.0>
0

>  <SCORE.INTRA.SOLV>
-7.55222

>  <SCORE.INTRA.SOLV.lig_0>
-24.7684

>  <SCORE.INTRA.VDW>
-1.26557

>  <SCORE.INTRA.VDW.0>
1.76664

>  <SCORE.INTRA.norm>
-0.0124868

>  <SCORE.RESTR>
0

>  <SCORE.RESTR.CAVITY>
0

>  <SCORE.RESTR.norm>
0

>  <SCORE.SYSTEM>
-19.2007

>  <SCORE.SYSTEM.CONST>
0

>  <SCORE.SYSTEM.DIHEDRAL>
4.2647

>  <SCORE.SYSTEM.POLAR>
-3.00495

>  <SCORE.SYSTEM.SOLV>
-0.120853

>  <SCORE.SYSTEM.VDW>
-4.16527

>  <SCORE.SYSTEM.norm>
-2.40009

>  <SCORE.heavy>
8

>  <SCORE.norm>
-7.31453

$$$$
P121991601
 OpenBabel12072022113D
libRbt.so/2013.1/901 2013/11/27
 14 13  0  0  0  0  0  0  0  0999 V2000
  -30.2834   18.2080  -19.3381 C   0  0  0  0  0  0  0  0  0  0  0  0
  -31.0774   18.6697  -18.1158 C   0  0  1  0  0  0  0  0  0  0  0  0
  -30.6902   17.8788  -16.8519 C   0  0  0  0  0  0  0  0  0  0  0  0
  -31.6555   17.9701  -15.6531 C   0  0  0  0  0  0  0  0  0  0  0  0
  -31.2254   17.2875  -14.3594 C   0  0  0  0  0  0  0  0  0  0  0  0
  -31.2903   18.2182  -13.2238 N   0  3  0  0  0  0  0  0  0  0  0  0
  -31.0479   17.6850  -12.3582 H   0  0  0  0  0  0  0  0  0  0  0  0
  -30.5571   18.9391  -13.2563 H   0  0  0  0  0  0  0  0  0  0  0  0
  -32.2049   18.6508  -13.0744 H   0  0  0  0  0  0  0  0  0  0  0  0
  -30.8736   20.1003  -17.8962 N   0  0  0  0  0  0  0  0  0  0  0  0
  -32.4661   18.5263  -18.3375 O   0  0  0  0  0  0  0  0  0  0  0  0
  -31.6455   20.4365  -17.3047 H   0  0  0  0  0  0  0  0  0  0  0  0
  -30.0660   20.1777  -17.2620 H   0  0  0  0  0  0  0  0  0  0  0  0
  -32.7181   19.1634  -19.0346 H   0  0  0  0  0  0  0  0  0  0  0  0
  2  1  1  6  0  0  0
  2  3  1  0  0  0  0
  2 10  1  0  0  0  0
  2 11  1  0  0  0  0
  3  4  1  0  0  0  0
  4  5  1  0  0  0  0
  5  6  1  0  0  0  0
  6  7  1  0  0  0  0
  6  8  1  0  0  0  0
  6  9  1  0  0  0  0
 10 12  1  0  0  0  0
 10 13  1  0  0  0  0
 11 14  1  0  0  0  0
M  CHG  1   6   1
M  END
>  <CHROM.0>
-60.52509504,60.62107973,61.48043011,-40.33279251,-52.00251182,-174.42599292
56.93659548,-178.08153527,-168.51983221

>  <CHROM.1>
-164.14145600,160.53224466,-67.23577217,-175.02086796,127.18421008,176.31542292
-31.21962106,18.39486397,-16.67964307,-1.29648915,-1.40183018,2.02746684

>  <Name>
P121991601

>  <RI>
0

>  <Rbt.Current_Directory>
/home/fstefaniak/projects/zuza/docking/adenine/4TZX

>  <Rbt.Executable>
rbdock ($Id: //depot/dev/client3/rdock/2013.1/src/exe/rbdock.cxx#4 $)

>  <Rbt.Library>
libRbt.so (2013.1, Build901 2013/11/27)

>  <Rbt.Parameter_File>
/home/fstefaniak/progs/rDock//data/scripts/dock_solv.prm

>  <Rbt.Receptor>
4tzx.prm

>  <SCORE>
-57.5007

>  <SCORE.INTER>
-39.6556

>  <SCORE.INTER.CONST>
1

>  <SCORE.INTER.POLAR>
-7.68053

>  <SCORE.INTER.ROT>
4

>  <SCORE.INTER.SOLV>
20.9417

>  <SCORE.INTER.VDW>
-14.0825

>  <SCORE.INTER.norm>
-4.95695

>  <SCORE.INTRA>
0.0302925

>  <SCORE.INTRA.DIHEDRAL>
3.20438

>  <SCORE.INTRA.DIHEDRAL.0>
4.4784

>  <SCORE.INTRA.POLAR>
1.08249

>  <SCORE.INTRA.POLAR.0>
-1.08249

>  <SCORE.INTRA.REPUL>
0

>  <SCORE.INTRA.REPUL.0>
0

>  <SCORE.INTRA.SOLV>
-7.60851

>  <SCORE.INTRA.SOLV.lig_0>
-24.7684

>  <SCORE.INTRA.VDW>
-1.44812

>  <SCORE.INTRA.VDW.0>
1.76664

>  <SCORE.INTRA.norm>
0.00378657

>  <SCORE.RESTR>
0

>  <SCORE.RESTR.CAVITY>
0

>  <SCORE.RESTR.norm>
0

>  <SCORE.SYSTEM>
-17.8754

>  <SCORE.SYSTEM.CONST>
0

>  <SCORE.SYSTEM.DIHEDRAL>
4.90083

>  <SCORE.SYSTEM.POLAR>
-3.08798

>  <SCORE.SYSTEM.SOLV>
-0.102103

>  <SCORE.SYSTEM.VDW>
-3.22324

>  <SCORE.SYSTEM.norm>
-2.23442

>  <SCORE.heavy>
8

>  <SCORE.norm>
-7.18759

$$$$
P123254707
 OpenBabel12072022113D
libRbt.so/2013.1/901 2013/11/27
 10  9  0  0  0  0  0  0  0  0999 V2000
  -30.4810   18.5164  -18.7684 C   0  0  0  0  0  0  0  0  0  0  0  0
  -30.5768   18.0954  -17.3151 C   0  0  0  0  0  0  0  0  0  0  0  0
  -29.4285   17.3030  -16.9252 N   0  0  0  0  0  0  0  0  0  0  0  0
  -29.2886   16.8906  -15.6242 C   0  0  0  0  0  0  0  0  0  0  0  0
  -30.0594   16.1465  -15.0281 O   0  0  0  0  0  0  0  0  0  0  0  0
  -28.1661   17.4254  -15.0282 N   0  0  0  0  0  0  0  0  0  0  0  0
  -28.3043   17.6075  -13.6240 O   0  0  0  0  0  0  0  0  0  0  0  0
  -29.0884   16.6367  -17.6051 H   0  0  0  0  0  0  0  0  0  0  0  0
  -27.7440   18.2167  -15.5009 H   0  0  0  0  0  0  0  0  0  0  0  0
  -28.9466   18.3506  -13.5722 H   0  0  0  0  0  0  0  0  0  0  0  0
  1  2  1  0  0  0  0
  2  3  1  0  0  0  0
  3  4  1  0  0  0  0
  3  8  1  0  0  0  0
  4  5  2  0  0  0  0
  4  6  1  0  0  0  0
  6  7  1  0  0  0  0
  6  9  1  0  0  0  0
  7 10  1  0  0  0  0
M  END
>  <CHROM.0>
-61.37272052,57.88765011,-67.97228427,-43.27506367,-177.28561926,-64.42869501
-63.38370992,-59.28036069,-168.66218796

>  <CHROM.1>
176.17981117,62.53691023,150.24011705,-70.45150852,-29.44914578,17.43548554
-16.00004851,-2.14277044,0.72666714,2.21739388

>  <Name>
P123254707

>  <RI>
0

>  <Rbt.Current_Directory>
/home/fstefaniak/projects/zuza/docking/adenine/4TZX

>  <Rbt.Executable>
rbdock ($Id: //depot/dev/client3/rdock/2013.1/src/exe/rbdock.cxx#4 $)

>  <Rbt.Library>
libRbt.so (2013.1, Build901 2013/11/27)

>  <Rbt.Parameter_File>
/home/fstefaniak/progs/rDock//data/scripts/dock_solv.prm

>  <Rbt.Receptor>
4tzx.prm

>  <SCORE>
-52.9099

>  <SCORE.INTER>
-30.6388

>  <SCORE.INTER.CONST>
1

>  <SCORE.INTER.POLAR>
-5.4092

>  <SCORE.INTER.ROT>
3

>  <SCORE.INTER.SOLV>
11.5832

>  <SCORE.INTER.VDW>
-11.8563

>  <SCORE.INTER.norm>
-4.37697

>  <SCORE.INTRA>
-1.77822

>  <SCORE.INTRA.DIHEDRAL>
-0.648394

>  <SCORE.INTRA.DIHEDRAL.0>
1.95717

>  <SCORE.INTRA.POLAR>
0

>  <SCORE.INTRA.POLAR.0>
0

>  <SCORE.INTRA.REPUL>
0

>  <SCORE.INTRA.REPUL.0>
0

>  <SCORE.INTRA.SOLV>
0.0471739

>  <SCORE.INTRA.SOLV.lig_0>
-19.9364

>  <SCORE.INTRA.VDW>
-1.47761

>  <SCORE.INTRA.VDW.0>
1.276

>  <SCORE.INTRA.norm>
-0.254031

>  <SCORE.RESTR>
0

>  <SCORE.RESTR.CAVITY>
0

>  <SCORE.RESTR.norm>
0

>  <SCORE.SYSTEM>
-20.4929

>  <SCORE.SYSTEM.CONST>
0

>  <SCORE.SYSTEM.DIHEDRAL>
4.44133

>  <SCORE.SYSTEM.POLAR>
-3.03669

>  <SCORE.SYSTEM.SOLV>
0.0682842

>  <SCORE.SYSTEM.VDW>
-5.04281

>  <SCORE.SYSTEM.norm>
-2.92755

>  <SCORE.heavy>
7

>  <SCORE.norm>
-7.55856

$$$$
P123254707
 OpenBabel12072022113D
libRbt.so/2013.1/901 2013/11/27
 10  9  0  0  0  0  0  0  0  0999 V2000
  -31.4190   18.0289  -13.7524 C   0  0  0  0  0  0  0  0  0  0  0  0
  -30.9192   17.8497  -15.1724 C   0  0  0  0  0  0  0  0  0  0  0  0
  -31.9533   18.1734  -16.1338 N   0  0  0  0  0  0  0  0  0  0  0  0
  -31.6226   18.4130  -17.4435 C   0  0  0  0  0  0  0  0  0  0  0  0
  -30.5601   18.1100  -17.9747 O   0  0  0  0  0  0  0  0  0  0  0  0
  -32.6310   19.0637  -18.1226 N   0  0  0  0  0  0  0  0  0  0  0  0
  -33.5839   18.1801  -18.7016 O   0  0  0  0  0  0  0  0  0  0  0  0
  -32.8423   17.7072  -16.0143 H   0  0  0  0  0  0  0  0  0  0  0  0
  -32.3411   19.8115  -18.7427 H   0  0  0  0  0  0  0  0  0  0  0  0
  -33.0130   17.5637  -19.2131 H   0  0  0  0  0  0  0  0  0  0  0  0
  1  2  1  0  0  0  0
  2  3  1  0  0  0  0
  3  4  1  0  0  0  0
  3  8  1  0  0  0  0
  4  5  2  0  0  0  0
  4  6  1  0  0  0  0
  6  7  1  0  0  0  0
  6  9  1  0  0  0  0
  7 10  1  0  0  0  0
M  END
>  <CHROM.0>
-63.23386828,56.40411581,-60.04215185,-44.08321137,-59.06642384,-58.81125069
-66.32178308,-60.48207893,-168.63658173

>  <CHROM.1>
163.11505024,16.54417282,-87.91703871,-52.31631689,-31.84893588,18.25307718
-16.81049350,1.22175051,-0.08694173,1.65997607

>  <Name>
P123254707

>  <RI>
0

>  <Rbt.Current_Directory>
/home/fstefaniak/projects/zuza/docking/adenine/4TZX

>  <Rbt.Executable>
rbdock ($Id: //depot/dev/client3/rdock/2013.1/src/exe/rbdock.cxx#4 $)

>  <Rbt.Library>
libRbt.so (2013.1, Build901 2013/11/27)

>  <Rbt.Parameter_File>
/home/fstefaniak/progs/rDock//data/scripts/dock_solv.prm

>  <Rbt.Receptor>
4tzx.prm

>  <SCORE>
-52.4619

>  <SCORE.INTER>
-30.9329

>  <SCORE.INTER.CONST>
1

>  <SCORE.INTER.POLAR>
-5.7113

>  <SCORE.INTER.ROT>
3

>  <SCORE.INTER.SOLV>
13.4808

>  <SCORE.INTER.VDW>
-11.6779

>  <SCORE.INTER.norm>
-4.41899

>  <SCORE.INTRA>
-1.35696

>  <SCORE.INTRA.DIHEDRAL>
-0.597106

>  <SCORE.INTRA.DIHEDRAL.0>
1.95717

>  <SCORE.INTRA.POLAR>
0

>  <SCORE.INTRA.POLAR.0>
0

>  <SCORE.INTRA.REPUL>
0

>  <SCORE.INTRA.REPUL.0>
0

>  <SCORE.INTRA.SOLV>
0.248931

>  <SCORE.INTRA.SOLV.lig_0>
-19.9364

>  <SCORE.INTRA.VDW>
-1.18287

>  <SCORE.INTRA.VDW.0>
1.276

>  <SCORE.INTRA.norm>
-0.193852

>  <SCORE.RESTR>
0

>  <SCORE.RESTR.CAVITY>
0

>  <SCORE.RESTR.norm>
0

>  <SCORE.SYSTEM>
-20.172

>  <SCORE.SYSTEM.CONST>
0

>  <SCORE.SYSTEM.DIHEDRAL>
4.14081

>  <SCORE.SYSTEM.POLAR>
-3.0211

>  <SCORE.SYSTEM.SOLV>
0.26673

>  <SCORE.SYSTEM.VDW>
-4.84684

>  <SCORE.SYSTEM.norm>
-2.88172

>  <SCORE.heavy>
7

>  <SCORE.norm>
-7.49455

$$$$
P123254707
 OpenBabel12072022113D
libRbt.so/2013.1/901 2013/11/27
 10  9  0  0  0  0  0  0  0  0999 V2000
  -30.4488   18.4728  -18.8997 C   0  0  0  0  0  0  0  0  0  0  0  0
  -30.5248   18.2173  -17.4073 C   0  0  0  0  0  0  0  0  0  0  0  0
  -29.4032   17.4186  -16.9574 N   0  0  0  0  0  0  0  0  0  0  0  0
  -29.3249   17.0216  -15.6464 C   0  0  0  0  0  0  0  0  0  0  0  0
  -30.1681   16.3579  -15.0537 O   0  0  0  0  0  0  0  0  0  0  0  0
  -28.1727   17.4706  -15.0363 N   0  0  0  0  0  0  0  0  0  0  0  0
  -28.3084   17.6440  -13.6307 O   0  0  0  0  0  0  0  0  0  0  0  0
  -29.0404   16.7403  -17.6133 H   0  0  0  0  0  0  0  0  0  0  0  0
  -27.6939   18.2370  -15.4958 H   0  0  0  0  0  0  0  0  0  0  0  0
  -28.9651   18.3739  -13.5730 H   0  0  0  0  0  0  0  0  0  0  0  0
  1  2  1  0  0  0  0
  2  3  1  0  0  0  0
  3  4  1  0  0  0  0
  3  8  1  0  0  0  0
  4  5  2  0  0  0  0
  4  6  1  0  0  0  0
  6  7  1  0  0  0  0
  6  9  1  0  0  0  0
  7 10  1  0  0  0  0
M  END
>  <CHROM.0>
-59.23043079,53.77552573,-71.41859406,-41.78300131,-176.96604186,-61.74533392
-169.64544150,-60.83862451,-168.43608625

>  <CHROM.1>
-176.73800507,58.00685362,152.45002118,-65.32388627,-29.45573128,17.52188349
-16.04439858,-2.06897704,0.61963181,2.09766220

>  <Name>
P123254707

>  <RI>
0

>  <Rbt.Current_Directory>
/home/fstefaniak/projects/zuza/docking/adenine/4TZX

>  <Rbt.Executable>
rbdock ($Id: //depot/dev/client3/rdock/2013.1/src/exe/rbdock.cxx#4 $)

>  <Rbt.Library>
libRbt.so (2013.1, Build901 2013/11/27)

>  <Rbt.Parameter_File>
/home/fstefaniak/progs/rDock//data/scripts/dock_solv.prm

>  <Rbt.Receptor>
4tzx.prm

>  <SCORE>
-52.1881

>  <SCORE.INTER>
-30.7988

>  <SCORE.INTER.CONST>
1

>  <SCORE.INTER.POLAR>
-5.43203

>  <SCORE.INTER.ROT>
3

>  <SCORE.INTER.SOLV>
11.5369

>  <SCORE.INTER.VDW>
-11.8714

>  <SCORE.INTER.norm>
-4.39983

>  <SCORE.INTRA>
-1.50545

>  <SCORE.INTRA.DIHEDRAL>
-0.443755

>  <SCORE.INTRA.DIHEDRAL.0>
1.95717

>  <SCORE.INTRA.POLAR>
0

>  <SCORE.INTRA.POLAR.0>
0

>  <SCORE.INTRA.REPUL>
0

>  <SCORE.INTRA.REPUL.0>
0

>  <SCORE.INTRA.SOLV>
0.024287

>  <SCORE.INTRA.SOLV.lig_0>
-19.9364

>  <SCORE.INTRA.VDW>
-1.29571

>  <SCORE.INTRA.VDW.0>
1.276

>  <SCORE.INTRA.norm>
-0.215064

>  <SCORE.RESTR>
0

>  <SCORE.RESTR.CAVITY>
0

>  <SCORE.RESTR.norm>
0

>  <SCORE.SYSTEM>
-19.8838

>  <SCORE.SYSTEM.CONST>
0

>  <SCORE.SYSTEM.DIHEDRAL>
5.48936

>  <SCORE.SYSTEM.POLAR>
-3.07003

>  <SCORE.SYSTEM.SOLV>
0.0614069

>  <SCORE.SYSTEM.VDW>
-4.87271

>  <SCORE.SYSTEM.norm>
-2.84055

>  <SCORE.heavy>
7

>  <SCORE.norm>
-7.45544

$$$$
P123387399
 OpenBabel12072022113D
libRbt.so/2013.1/901 2013/11/27
 14 14  0  0  0  0  0  0  0  0999 V2000
  -27.5322   13.6597  -16.3324 C   0  0  0  0  0  0  0  0  0  0  0  0
  -27.8978   15.0217  -16.5531 O   0  0  0  0  0  0  0  0  0  0  0  0
  -29.2052   15.3021  -16.2472 C   0  0  0  0  0  0  0  0  0  0  0  0
  -29.9851   14.4978  -15.7497 O   0  0  0  0  0  0  0  0  0  0  0  0
  -29.5158   16.7765  -16.5718 C   0  0  2  0  0  0  0  0  0  0  0  0
  -30.5712   17.3528  -15.5878 C   0  0  2  0  0  0  0  0  0  0  0  0
  -30.9876   18.7704  -16.0087 C   0  0  0  0  0  0  0  0  0  0  0  0
  -31.3835   18.8164  -17.4807 C   0  0  0  0  0  0  0  0  0  0  0  0
  -30.2810   18.2411  -18.3627 C   0  0  0  0  0  0  0  0  0  0  0  0
  -29.9810   16.8644  -17.9833 N   0  0  0  0  0  0  0  0  0  0  0  0
  -30.0830   17.4260  -14.1988 N   0  0  0  0  0  0  0  0  0  0  0  0
  -29.2401   16.4936  -18.5822 H   0  0  0  0  0  0  0  0  0  0  0  0
  -30.8996   17.4866  -13.5800 H   0  0  0  0  0  0  0  0  0  0  0  0
  -29.5843   18.3062  -14.0660 H   0  0  0  0  0  0  0  0  0  0  0  0
  1  2  1  0  0  0  0
  2  3  1  0  0  0  0
  3  4  2  0  0  0  0
  5  6  1  0  0  0  0
  5 10  1  0  0  0  0
  5  3  1  1  0  0  0
  6  7  1  0  0  0  0
  6 11  1  1  0  0  0
  7  8  1  0  0  0  0
  8  9  1  0  0  0  0
  9 10  1  0  0  0  0
 10 12  1  0  0  0  0
 11 13  1  0  0  0  0
 11 14  1  0  0  0  0
M  END
>  <CHROM.0>
-54.55191544,62.26603179,-61.30701618,-43.44175079,-175.47503226,-55.47277365
-65.60939642,-56.35281734,-169.13931414

>  <CHROM.1>
4.41424367,-147.75830401,-160.16289047,-29.73723110,16.57312285,-16.44050112
-0.32634106,0.98196254,-1.33481914

>  <Name>
P123387399

>  <RI>
0

>  <Rbt.Current_Directory>
/home/fstefaniak/projects/zuza/docking/adenine/4TZX

>  <Rbt.Executable>
rbdock ($Id: //depot/dev/client3/rdock/2013.1/src/exe/rbdock.cxx#4 $)

>  <Rbt.Library>
libRbt.so (2013.1, Build901 2013/11/27)

>  <Rbt.Parameter_File>
/home/fstefaniak/progs/rDock//data/scripts/dock_solv.prm

>  <Rbt.Receptor>
4tzx.prm

>  <SCORE>
-46.6462

>  <SCORE.INTER>
-27.5212

>  <SCORE.INTER.CONST>
1

>  <SCORE.INTER.POLAR>
-3.48647

>  <SCORE.INTER.ROT>
3

>  <SCORE.INTER.SOLV>
12.0156

>  <SCORE.INTER.VDW>
-16.331

>  <SCORE.INTER.norm>
-2.50192

>  <SCORE.INTRA>
1.06775

>  <SCORE.INTRA.DIHEDRAL>
1.63495

>  <SCORE.INTRA.DIHEDRAL.0>
0.879528

>  <SCORE.INTRA.POLAR>
0.00598861

>  <SCORE.INTRA.POLAR.0>
-0.00598861

>  <SCORE.INTRA.REPUL>
0

>  <SCORE.INTRA.REPUL.0>
0

>  <SCORE.INTRA.SOLV>
-0.230641

>  <SCORE.INTRA.SOLV.lig_0>
-10.1992

>  <SCORE.INTRA.VDW>
0.345231

>  <SCORE.INTRA.VDW.0>
1.27936

>  <SCORE.INTRA.norm>
0.0970679

>  <SCORE.RESTR>
0

>  <SCORE.RESTR.CAVITY>
0

>  <SCORE.RESTR.norm>
0

>  <SCORE.SYSTEM>
-20.1928

>  <SCORE.SYSTEM.CONST>
0

>  <SCORE.SYSTEM.DIHEDRAL>
4.43516

>  <SCORE.SYSTEM.POLAR>
-3.10934

>  <SCORE.SYSTEM.SOLV>
0.0874038

>  <SCORE.SYSTEM.VDW>
-4.60494

>  <SCORE.SYSTEM.norm>
-1.83571

>  <SCORE.heavy>
11

>  <SCORE.norm>
-4.24057

$$$$
P123387399
 OpenBabel12072022113D
libRbt.so/2013.1/901 2013/11/27
 14 14  0  0  0  0  0  0  0  0999 V2000
  -26.1611   14.7696  -16.2512 C   0  0  0  0  0  0  0  0  0  0  0  0
  -27.0437   15.8319  -16.6119 O   0  0  0  0  0  0  0  0  0  0  0  0
  -28.2963   15.7231  -16.0636 C   0  0  0  0  0  0  0  0  0  0  0  0
  -28.6915   14.7484  -15.4339 O   0  0  0  0  0  0  0  0  0  0  0  0
  -29.0931   17.0186  -16.3137 C   0  0  2  0  0  0  0  0  0  0  0  0
  -30.2108   17.1989  -15.2495 C   0  0  2  0  0  0  0  0  0  0  0  0
  -31.0952   18.4075  -15.5918 C   0  0  0  0  0  0  0  0  0  0  0  0
  -31.5817   18.3456  -17.0358 C   0  0  0  0  0  0  0  0  0  0  0  0
  -30.4132   18.1800  -18.0009 C   0  0  0  0  0  0  0  0  0  0  0  0
  -29.6547   16.9724  -17.6918 N   0  0  0  0  0  0  0  0  0  0  0  0
  -29.6819   17.4052  -13.8891 N   0  0  0  0  0  0  0  0  0  0  0  0
  -28.8749   16.8761  -18.3459 H   0  0  0  0  0  0  0  0  0  0  0  0
  -30.4798   17.4750  -13.2474 H   0  0  0  0  0  0  0  0  0  0  0  0
  -29.2246   18.3161  -13.8431 H   0  0  0  0  0  0  0  0  0  0  0  0
  1  2  1  0  0  0  0
  2  3  1  0  0  0  0
  3  4  2  0  0  0  0
  5  6  1  0  0  0  0
  5 10  1  0  0  0  0
  5  3  1  1  0  0  0
  6  7  1  0  0  0  0
  6 11  1  1  0  0  0
  7  8  1  0  0  0  0
  8  9  1  0  0  0  0
  9 10  1  0  0  0  0
 10 12  1  0  0  0  0
 11 13  1  0  0  0  0
 11 14  1  0  0  0  0
M  END
>  <CHROM.0>
-61.10290771,67.06057966,-62.36418000,-42.49880381,-64.77006448,-62.88375298
-68.56280684,-53.17298474,-169.45701181

>  <CHROM.1>
-7.22880439,-155.60474541,-177.65462862,-29.22340224,16.75591648,-16.17700270
-0.15337046,0.65971023,-1.43152540

>  <Name>
P123387399

>  <RI>
0

>  <Rbt.Current_Directory>
/home/fstefaniak/projects/zuza/docking/adenine/4TZX

>  <Rbt.Executable>
rbdock ($Id: //depot/dev/client3/rdock/2013.1/src/exe/rbdock.cxx#4 $)

>  <Rbt.Library>
libRbt.so (2013.1, Build901 2013/11/27)

>  <Rbt.Parameter_File>
/home/fstefaniak/progs/rDock//data/scripts/dock_solv.prm

>  <Rbt.Receptor>
4tzx.prm

>  <SCORE>
-46.5517

>  <SCORE.INTER>
-27.2143

>  <SCORE.INTER.CONST>
1

>  <SCORE.INTER.POLAR>
-4.03815

>  <SCORE.INTER.ROT>
3

>  <SCORE.INTER.SOLV>
11.1928

>  <SCORE.INTER.VDW>
-14.0133

>  <SCORE.INTER.norm>
-2.47403

>  <SCORE.INTRA>
0.566399

>  <SCORE.INTRA.DIHEDRAL>
1.00242

>  <SCORE.INTRA.DIHEDRAL.0>
0.879528

>  <SCORE.INTRA.POLAR>
0.00598861

>  <SCORE.INTRA.POLAR.0>
-0.00598861

>  <SCORE.INTRA.REPUL>
0

>  <SCORE.INTRA.REPUL.0>
0

>  <SCORE.INTRA.SOLV>
-0.226872

>  <SCORE.INTRA.SOLV.lig_0>
-10.1992

>  <SCORE.INTRA.VDW>
0.158265

>  <SCORE.INTRA.VDW.0>
1.27936

>  <SCORE.INTRA.norm>
0.0514908

>  <SCORE.RESTR>
0

>  <SCORE.RESTR.CAVITY>
0

>  <SCORE.RESTR.norm>
0

>  <SCORE.SYSTEM>
-19.9038

>  <SCORE.SYSTEM.CONST>
0

>  <SCORE.SYSTEM.DIHEDRAL>
4.9324

>  <SCORE.SYSTEM.POLAR>
-3.06107

>  <SCORE.SYSTEM.SOLV>
0.214118

>  <SCORE.SYSTEM.VDW>
-4.78117

>  <SCORE.SYSTEM.norm>
-1.80944

>  <SCORE.heavy>
11

>  <SCORE.norm>
-4.23197

$$$$
P123387399
 OpenBabel12072022113D
libRbt.so/2013.1/901 2013/11/27
 14 14  0  0  0  0  0  0  0  0999 V2000
  -27.5499   13.6533  -16.3264 C   0  0  0  0  0  0  0  0  0  0  0  0
  -27.9139   15.0145  -16.5546 O   0  0  0  0  0  0  0  0  0  0  0  0
  -29.2159   15.3023  -16.2332 C   0  0  0  0  0  0  0  0  0  0  0  0
  -29.9912   14.5057  -15.7165 O   0  0  0  0  0  0  0  0  0  0  0  0
  -29.5264   16.7743  -16.5686 C   0  0  2  0  0  0  0  0  0  0  0  0
  -30.5892   17.3549  -15.5951 C   0  0  2  0  0  0  0  0  0  0  0  0
  -31.0047   18.7694  -16.0273 C   0  0  0  0  0  0  0  0  0  0  0  0
  -31.3908   18.8061  -17.5021 C   0  0  0  0  0  0  0  0  0  0  0  0
  -30.2816   18.2272  -18.3733 C   0  0  0  0  0  0  0  0  0  0  0  0
  -29.9823   16.8532  -17.9837 N   0  0  0  0  0  0  0  0  0  0  0  0
  -30.1105   17.4371  -14.2033 N   0  0  0  0  0  0  0  0  0  0  0  0
  -29.2368   16.4800  -18.5754 H   0  0  0  0  0  0  0  0  0  0  0  0
  -30.9310   17.4383  -13.5868 H   0  0  0  0  0  0  0  0  0  0  0  0
  -29.6669   18.3440  -14.0557 H   0  0  0  0  0  0  0  0  0  0  0  0
  1  2  1  0  0  0  0
  2  3  1  0  0  0  0
  3  4  2  0  0  0  0
  5  6  1  0  0  0  0
  5 10  1  0  0  0  0
  5  3  1  1  0  0  0
  6  7  1  0  0  0  0
  6 11  1  1  0  0  0
  7  8  1  0  0  0  0
  8  9  1  0  0  0  0
  9 10  1  0  0  0  0
 10 12  1  0  0  0  0
 11 13  1  0  0  0  0
 11 14  1  0  0  0  0
M  END
>  <CHROM.0>
-56.13765341,64.01170802,-62.05148151,-43.52711546,-54.89062911,-60.95499578
-70.54702989,-59.45928255,-169.23136272

>  <CHROM.1>
4.48159534,-149.00616252,-156.53097179,-29.74979394,16.57019113,-16.44084092
-0.33865150,0.97978302,-1.32489857

>  <Name>
P123387399

>  <RI>
0

>  <Rbt.Current_Directory>
/home/fstefaniak/projects/zuza/docking/adenine/4TZX

>  <Rbt.Executable>
rbdock ($Id: //depot/dev/client3/rdock/2013.1/src/exe/rbdock.cxx#4 $)

>  <Rbt.Library>
libRbt.so (2013.1, Build901 2013/11/27)

>  <Rbt.Parameter_File>
/home/fstefaniak/progs/rDock//data/scripts/dock_solv.prm

>  <Rbt.Receptor>
4tzx.prm

>  <SCORE>
-46.4665

>  <SCORE.INTER>
-27.6039

>  <SCORE.INTER.CONST>
1

>  <SCORE.INTER.POLAR>
-3.5377

>  <SCORE.INTER.ROT>
3

>  <SCORE.INTER.SOLV>
12.0185

>  <SCORE.INTER.VDW>
-16.2165

>  <SCORE.INTER.norm>
-2.50945

>  <SCORE.INTRA>
1.23666

>  <SCORE.INTRA.DIHEDRAL>
1.8001

>  <SCORE.INTRA.DIHEDRAL.0>
0.879528

>  <SCORE.INTRA.POLAR>
0.00598861

>  <SCORE.INTRA.POLAR.0>
-0.00598861

>  <SCORE.INTRA.REPUL>
0

>  <SCORE.INTRA.REPUL.0>
0

>  <SCORE.INTRA.SOLV>
-0.225414

>  <SCORE.INTRA.SOLV.lig_0>
-10.1992

>  <SCORE.INTRA.VDW>
0.428958

>  <SCORE.INTRA.VDW.0>
1.27936

>  <SCORE.INTRA.norm>
0.112424

>  <SCORE.RESTR>
0

>  <SCORE.RESTR.CAVITY>
0

>  <SCORE.RESTR.norm>
0

>  <SCORE.SYSTEM>
-20.0993

>  <SCORE.SYSTEM.CONST>
0

>  <SCORE.SYSTEM.DIHEDRAL>
4.64156

>  <SCORE.SYSTEM.POLAR>
-3.07891

>  <SCORE.SYSTEM.SOLV>
0.241898

>  <SCORE.SYSTEM.VDW>
-4.76428

>  <SCORE.SYSTEM.norm>
-1.82721

>  <SCORE.heavy>
11

>  <SCORE.norm>
-4.22423

$$$$
P123387402
 OpenBabel12072022113D
libRbt.so/2013.1/901 2013/11/27
 14 14  0  0  0  0  0  0  0  0999 V2000
  -25.9795   16.2591  -16.1478 C   0  0  0  0  0  0  0  0  0  0  0  0
  -27.3531   16.0235  -16.4563 O   0  0  0  0  0  0  0  0  0  0  0  0
  -28.2209   16.8326  -15.7751 C   0  0  0  0  0  0  0  0  0  0  0  0
  -27.8738   17.7702  -15.0660 O   0  0  0  0  0  0  0  0  0  0  0  0
  -29.6769   16.4253  -16.0839 C   0  0  1  0  0  0  0  0  0  0  0  0
  -30.7198   17.3417  -15.3936 C   0  0  2  0  0  0  0  0  0  0  0  0
  -30.7952   18.7099  -16.0799 C   0  0  0  0  0  0  0  0  0  0  0  0
  -31.0531   18.5323  -17.5731 C   0  0  0  0  0  0  0  0  0  0  0  0
  -30.0210   17.6148  -18.2206 C   0  0  0  0  0  0  0  0  0  0  0  0
  -29.9198   16.3148  -17.5519 N   0  0  0  0  0  0  0  0  0  0  0  0
  -30.5195   17.5231  -13.9505 N   0  0  0  0  0  0  0  0  0  0  0  0
  -29.1450   15.7968  -17.9697 H   0  0  0  0  0  0  0  0  0  0  0  0
  -31.4242   17.5600  -13.4800 H   0  0  0  0  0  0  0  0  0  0  0  0
  -30.0738   18.4247  -13.7793 H   0  0  0  0  0  0  0  0  0  0  0  0
  1  2  1  0  0  0  0
  2  3  1  0  0  0  0
  3  4  2  0  0  0  0
  5  3  1  6  0  0  0
  5 10  1  0  0  0  0
  5  6  1  0  0  0  0
  6  7  1  0  0  0  0
  6 11  1  1  0  0  0
  7  8  1  0  0  0  0
  8  9  1  0  0  0  0
  9 10  1  0  0  0  0
 10 12  1  0  0  0  0
 11 13  1  0  0  0  0
 11 14  1  0  0  0  0
M  END
>  <CHROM.0>
-59.73462166,67.96168219,-67.71639618,-42.52294098,-174.58216555,-58.57221275
-67.81870084,-175.41054388,-169.25670859

>  <CHROM.1>
7.16494766,-177.45161690,-142.90329261,-29.24147671,17.20946183,-16.18739827
-0.03355201,0.39365092,-1.70863865

>  <Name>
P123387402

>  <RI>
0

>  <Rbt.Current_Directory>
/home/fstefaniak/projects/zuza/docking/adenine/4TZX

>  <Rbt.Executable>
rbdock ($Id: //depot/dev/client3/rdock/2013.1/src/exe/rbdock.cxx#4 $)

>  <Rbt.Library>
libRbt.so (2013.1, Build901 2013/11/27)

>  <Rbt.Parameter_File>
/home/fstefaniak/progs/rDock//data/scripts/dock_solv.prm

>  <Rbt.Receptor>
4tzx.prm

>  <SCORE>
-48.9494

>  <SCORE.INTER>
-29.8806

>  <SCORE.INTER.CONST>
1

>  <SCORE.INTER.POLAR>
-3.79944

>  <SCORE.INTER.ROT>
3

>  <SCORE.INTER.SOLV>
10.7506

>  <SCORE.INTER.VDW>
-16.4392

>  <SCORE.INTER.norm>
-2.71642

>  <SCORE.INTRA>
1.04899

>  <SCORE.INTRA.DIHEDRAL>
1.10934

>  <SCORE.INTRA.DIHEDRAL.0>
1.64882

>  <SCORE.INTRA.POLAR>
-0.044182

>  <SCORE.INTRA.POLAR.0>
0

>  <SCORE.INTRA.REPUL>
0

>  <SCORE.INTRA.REPUL.0>
0

>  <SCORE.INTRA.SOLV>
0.0466812

>  <SCORE.INTRA.SOLV.lig_0>
-10.0019

>  <SCORE.INTRA.VDW>
0.621195

>  <SCORE.INTRA.VDW.0>
0.799858

>  <SCORE.INTRA.norm>
0.0953627

>  <SCORE.RESTR>
0

>  <SCORE.RESTR.CAVITY>
0

>  <SCORE.RESTR.norm>
0

>  <SCORE.SYSTEM>
-20.1177

>  <SCORE.SYSTEM.CONST>
0

>  <SCORE.SYSTEM.DIHEDRAL>
5.08166

>  <SCORE.SYSTEM.POLAR>
-3.04978

>  <SCORE.SYSTEM.SOLV>
-0.102104

>  <SCORE.SYSTEM.VDW>
-4.90574

>  <SCORE.SYSTEM.norm>
-1.82888

>  <SCORE.heavy>
11

>  <SCORE.norm>
-4.44994

$$$$
P123387402
 OpenBabel12072022113D
libRbt.so/2013.1/901 2013/11/27
 14 14  0  0  0  0  0  0  0  0999 V2000
  -25.9803   16.2623  -16.0918 C   0  0  0  0  0  0  0  0  0  0  0  0
  -27.3500   15.9978  -16.3947 O   0  0  0  0  0  0  0  0  0  0  0  0
  -28.2291   16.8325  -15.7605 C   0  0  0  0  0  0  0  0  0  0  0  0
  -27.8942   17.8002  -15.0869 O   0  0  0  0  0  0  0  0  0  0  0  0
  -29.6796   16.4082  -16.0720 C   0  0  1  0  0  0  0  0  0  0  0  0
  -30.7345   17.3227  -15.3975 C   0  0  2  0  0  0  0  0  0  0  0  0
  -30.8190   18.6822  -16.0999 C   0  0  0  0  0  0  0  0  0  0  0  0
  -31.0675   18.4851  -17.5922 C   0  0  0  0  0  0  0  0  0  0  0  0
  -30.0236   17.5699  -18.2239 C   0  0  0  0  0  0  0  0  0  0  0  0
  -29.9139   16.2787  -17.5398 N   0  0  0  0  0  0  0  0  0  0  0  0
  -30.5434   17.5225  -13.9557 N   0  0  0  0  0  0  0  0  0  0  0  0
  -29.1322   15.7631  -17.9477 H   0  0  0  0  0  0  0  0  0  0  0  0
  -31.4506   17.5495  -13.4892 H   0  0  0  0  0  0  0  0  0  0  0  0
  -30.1132   18.4330  -13.7921 H   0  0  0  0  0  0  0  0  0  0  0  0
  1  2  1  0  0  0  0
  2  3  1  0  0  0  0
  3  4  2  0  0  0  0
  5  3  1  6  0  0  0
  5 10  1  0  0  0  0
  5  6  1  0  0  0  0
  6  7  1  0  0  0  0
  6 11  1  1  0  0  0
  7  8  1  0  0  0  0
  8  9  1  0  0  0  0
  9 10  1  0  0  0  0
 10 12  1  0  0  0  0
 11 13  1  0  0  0  0
 11 14  1  0  0  0  0
M  END
>  <CHROM.0>
-59.04246616,70.24398493,-62.60014293,-42.78089345,-178.24391236,-174.60220372
-68.89400412,-60.79401730,-168.85732577

>  <CHROM.1>
6.34083130,-179.32855660,-142.48798205,-29.25090527,17.19312045,-16.17935275
-0.04525952,0.38899558,-1.71905198

>  <Name>
P123387402

>  <RI>
0

>  <Rbt.Current_Directory>
/home/fstefaniak/projects/zuza/docking/adenine/4TZX

>  <Rbt.Executable>
rbdock ($Id: //depot/dev/client3/rdock/2013.1/src/exe/rbdock.cxx#4 $)

>  <Rbt.Library>
libRbt.so (2013.1, Build901 2013/11/27)

>  <Rbt.Parameter_File>
/home/fstefaniak/progs/rDock//data/scripts/dock_solv.prm

>  <Rbt.Receptor>
4tzx.prm

>  <SCORE>
-48.7774

>  <SCORE.INTER>
-29.9798

>  <SCORE.INTER.CONST>
1

>  <SCORE.INTER.POLAR>
-3.81836

>  <SCORE.INTER.ROT>
3

>  <SCORE.INTER.SOLV>
10.7646

>  <SCORE.INTER.VDW>
-16.4469

>  <SCORE.INTER.norm>
-2.72543

>  <SCORE.INTRA>
1.06479

>  <SCORE.INTRA.DIHEDRAL>
1.06779

>  <SCORE.INTRA.DIHEDRAL.0>
1.64882

>  <SCORE.INTRA.POLAR>
-0.0373911

>  <SCORE.INTRA.POLAR.0>
0

>  <SCORE.INTRA.REPUL>
0

>  <SCORE.INTRA.REPUL.0>
0

>  <SCORE.INTRA.SOLV>
0.0516597

>  <SCORE.INTRA.SOLV.lig_0>
-10.0019

>  <SCORE.INTRA.VDW>
0.6322

>  <SCORE.INTRA.VDW.0>
0.799858

>  <SCORE.INTRA.norm>
0.0967993

>  <SCORE.RESTR>
0

>  <SCORE.RESTR.CAVITY>
0

>  <SCORE.RESTR.norm>
0

>  <SCORE.SYSTEM>
-19.8624

>  <SCORE.SYSTEM.CONST>
0

>  <SCORE.SYSTEM.DIHEDRAL>
5.03299

>  <SCORE.SYSTEM.POLAR>
-3.06059

>  <SCORE.SYSTEM.SOLV>
-0.0978845

>  <SCORE.SYSTEM.VDW>
-4.68467

>  <SCORE.SYSTEM.norm>
-1.80567

>  <SCORE.heavy>
11

>  <SCORE.norm>
-4.43431

$$$$
P123387402
 OpenBabel12072022113D
libRbt.so/2013.1/901 2013/11/27
 14 14  0  0  0  0  0  0  0  0999 V2000
  -25.9996   16.2173  -16.1479 C   0  0  0  0  0  0  0  0  0  0  0  0
  -27.3733   15.9894  -16.4618 O   0  0  0  0  0  0  0  0  0  0  0  0
  -28.2386   16.8101  -15.7914 C   0  0  0  0  0  0  0  0  0  0  0  0
  -27.8878   17.7437  -15.0788 O   0  0  0  0  0  0  0  0  0  0  0  0
  -29.6959   16.4213  -16.1171 C   0  0  1  0  0  0  0  0  0  0  0  0
  -30.7351   17.3501  -15.4378 C   0  0  2  0  0  0  0  0  0  0  0  0
  -30.7856   18.7197  -16.1237 C   0  0  0  0  0  0  0  0  0  0  0  0
  -31.0287   18.5465  -17.6199 C   0  0  0  0  0  0  0  0  0  0  0  0
  -30.0008   17.6166  -18.2565 C   0  0  0  0  0  0  0  0  0  0  0  0
  -29.9235   16.3150  -17.5878 N   0  0  0  0  0  0  0  0  0  0  0  0
  -30.5490   17.5280  -13.9924 N   0  0  0  0  0  0  0  0  0  0  0  0
  -29.1505   15.7876  -17.9973 H   0  0  0  0  0  0  0  0  0  0  0  0
  -31.4582   17.5610  -13.5304 H   0  0  0  0  0  0  0  0  0  0  0  0
  -30.1074   18.4303  -13.8144 H   0  0  0  0  0  0  0  0  0  0  0  0
  1  2  1  0  0  0  0
  2  3  1  0  0  0  0
  3  4  2  0  0  0  0
  5  3  1  6  0  0  0
  5 10  1  0  0  0  0
  5  6  1  0  0  0  0
  6  7  1  0  0  0  0
  6 11  1  1  0  0  0
  7  8  1  0  0  0  0
  8  9  1  0  0  0  0
  9 10  1  0  0  0  0
 10 12  1  0  0  0  0
 11 13  1  0  0  0  0
 11 14  1  0  0  0  0
M  END
>  <CHROM.0>
-60.15354331,65.69201808,-64.97189615,-43.52136309,-54.28598625,-176.58387325
-68.17971925,-60.64461633,-168.72611834

>  <CHROM.1>
6.53097833,-177.54351177,-142.01546143,-29.24960635,17.20071558,-16.21568880
-0.04264313,0.40653747,-1.70314870

>  <Name>
P123387402

>  <RI>
0

>  <Rbt.Current_Directory>
/home/fstefaniak/projects/zuza/docking/adenine/4TZX

>  <Rbt.Executable>
rbdock ($Id: //depot/dev/client3/rdock/2013.1/src/exe/rbdock.cxx#4 $)

>  <Rbt.Library>
libRbt.so (2013.1, Build901 2013/11/27)

>  <Rbt.Parameter_File>
/home/fstefaniak/progs/rDock//data/scripts/dock_solv.prm

>  <Rbt.Receptor>
4tzx.prm

>  <SCORE>
-48.7307

>  <SCORE.INTER>
-29.8183

>  <SCORE.INTER.CONST>
1

>  <SCORE.INTER.POLAR>
-3.7069

>  <SCORE.INTER.ROT>
3

>  <SCORE.INTER.SOLV>
10.7695

>  <SCORE.INTER.VDW>
-16.7123

>  <SCORE.INTER.norm>
-2.71075

>  <SCORE.INTRA>
1.07211

>  <SCORE.INTRA.DIHEDRAL>
1.10627

>  <SCORE.INTRA.DIHEDRAL.0>
1.64882

>  <SCORE.INTRA.POLAR>
-0.0438558

>  <SCORE.INTRA.POLAR.0>
0

>  <SCORE.INTRA.REPUL>
0

>  <SCORE.INTRA.REPUL.0>
0

>  <SCORE.INTRA.SOLV>
0.0457816

>  <SCORE.INTRA.SOLV.lig_0>
-10.0019

>  <SCORE.INTRA.VDW>
0.64519

>  <SCORE.INTRA.VDW.0>
0.799858

>  <SCORE.INTRA.norm>
0.0974642

>  <SCORE.RESTR>
0

>  <SCORE.RESTR.CAVITY>
0

>  <SCORE.RESTR.norm>
0

>  <SCORE.SYSTEM>
-19.9846

>  <SCORE.SYSTEM.CONST>
0

>  <SCORE.SYSTEM.DIHEDRAL>
4.67772

>  <SCORE.SYSTEM.POLAR>
-3.05524

>  <SCORE.SYSTEM.SOLV>
0.106804

>  <SCORE.SYSTEM.VDW>
-4.73377

>  <SCORE.SYSTEM.norm>
-1.81678

>  <SCORE.heavy>
11

>  <SCORE.norm>
-4.43007

$$$$
P123406382
 OpenBabel12072022113D
libRbt.so/2013.1/901 2013/11/27
 13 13  0  0  0  0  0  0  0  0999 V2000
  -25.3818   16.0287  -16.2504 C   0  0  0  0  0  0  0  0  0  0  0  0
  -25.9118   14.6342  -16.3731 C   0  0  0  0  0  0  0  0  0  0  0  0
  -25.6570   13.7243  -15.4682 N   0  0  0  0  0  0  0  0  0  0  0  0
  -26.3476   12.4975  -15.9748 C   0  0  2  0  0  0  0  0  0  0  0  0
  -27.3752   13.0391  -17.0569 C   0  0  1  0  0  0  0  0  0  0  0  0
  -26.7392   14.2845  -17.4057 N   0  0  0  0  0  0  0  0  0  0  0  0
  -27.5590   12.1569  -18.2766 C   0  0  0  0  0  0  0  0  0  0  0  0
  -28.6432   13.3872  -16.5282 O   0  0  0  0  0  0  0  0  0  0  0  0
  -27.0174   11.7964  -14.7985 C   0  0  0  0  0  0  0  0  0  0  0  0
  -25.4027   11.5912  -16.5313 O   0  0  0  0  0  0  0  0  0  0  0  0
  -27.3331   14.9872  -17.8257 H   0  0  0  0  0  0  0  0  0  0  0  0
  -29.0683   13.9247  -17.2178 H   0  0  0  0  0  0  0  0  0  0  0  0
  -25.0423   12.0990  -17.2799 H   0  0  0  0  0  0  0  0  0  0  0  0
  1  2  1  0  0  0  0
  2  3  2  0  0  0  0
  2  6  1  0  0  0  0
  3  4  1  0  0  0  0
  4  5  1  0  0  0  0
  4  9  1  1  0  0  0
  4 10  1  0  0  0  0
  5  6  1  0  0  0  0
  5  7  1  6  0  0  0
  5  8  1  0  0  0  0
  6 11  1  0  0  0  0
  8 12  1  0  0  0  0
 10 13  1  0  0  0  0
M  END
>  <CHROM.0>
-59.52738713,-175.26441181,-66.95167562,-41.72900368,62.50395747,58.55350292
-66.80103734,-59.48387093,-169.13074219

>  <CHROM.1>
-63.21164622,164.31363484,-26.62998576,13.29578273,-16.48795716,-1.03082180
0.65747245,2.87767450

>  <Name>
P123406382

>  <RI>
0

>  <Rbt.Current_Directory>
/home/fstefaniak/projects/zuza/docking/adenine/4TZX

>  <Rbt.Executable>
rbdock ($Id: //depot/dev/client3/rdock/2013.1/src/exe/rbdock.cxx#4 $)

>  <Rbt.Library>
libRbt.so (2013.1, Build901 2013/11/27)

>  <Rbt.Parameter_File>
/home/fstefaniak/progs/rDock//data/scripts/dock_solv.prm

>  <Rbt.Receptor>
4tzx.prm

>  <SCORE>
-42.9818

>  <SCORE.INTER>
-21.4556

>  <SCORE.INTER.CONST>
1

>  <SCORE.INTER.POLAR>
-2.62666

>  <SCORE.INTER.ROT>
0

>  <SCORE.INTER.SOLV>
7.22494

>  <SCORE.INTER.VDW>
-11.5565

>  <SCORE.INTER.norm>
-2.14556

>  <SCORE.INTRA>
-2.44049

>  <SCORE.INTRA.DIHEDRAL>
-6.25753

>  <SCORE.INTRA.DIHEDRAL.0>
6.81156

>  <SCORE.INTRA.POLAR>
0

>  <SCORE.INTRA.POLAR.0>
0

>  <SCORE.INTRA.REPUL>
0

>  <SCORE.INTRA.REPUL.0>
0

>  <SCORE.INTRA.SOLV>
0.0535307

>  <SCORE.INTRA.SOLV.lig_0>
-12.1465

>  <SCORE.INTRA.VDW>
0.661512

>  <SCORE.INTRA.VDW.0>
-0.301605

>  <SCORE.INTRA.norm>
-0.244049

>  <SCORE.RESTR>
0

>  <SCORE.RESTR.CAVITY>
0

>  <SCORE.RESTR.norm>
0

>  <SCORE.SYSTEM>
-19.0858

>  <SCORE.SYSTEM.CONST>
0

>  <SCORE.SYSTEM.DIHEDRAL>
4.70369

>  <SCORE.SYSTEM.POLAR>
-3.06367

>  <SCORE.SYSTEM.SOLV>
-0.193035

>  <SCORE.SYSTEM.VDW>
-4.01515

>  <SCORE.SYSTEM.norm>
-1.90858

>  <SCORE.heavy>
10

>  <SCORE.norm>
-4.29818

$$$$
P123406382
 OpenBabel12072022113D
libRbt.so/2013.1/901 2013/11/27
 13 13  0  0  0  0  0  0  0  0999 V2000
  -30.5492   18.3908  -18.3510 C   0  0  0  0  0  0  0  0  0  0  0  0
  -29.8855   17.7303  -17.1832 C   0  0  0  0  0  0  0  0  0  0  0  0
  -29.5675   18.4036  -16.1074 N   0  0  0  0  0  0  0  0  0  0  0  0
  -28.9259   17.3890  -15.2143 C   0  0  2  0  0  0  0  0  0  0  0  0
  -29.3708   15.9903  -15.8191 C   0  0  1  0  0  0  0  0  0  0  0  0
  -29.6510   16.3820  -17.1774 N   0  0  0  0  0  0  0  0  0  0  0  0
  -28.3205   14.8976  -15.7691 C   0  0  0  0  0  0  0  0  0  0  0  0
  -30.5934   15.4969  -15.2990 O   0  0  0  0  0  0  0  0  0  0  0  0
  -29.4157   17.6179  -13.7889 C   0  0  0  0  0  0  0  0  0  0  0  0
  -27.5128   17.5535  -15.2125 O   0  0  0  0  0  0  0  0  0  0  0  0
  -30.2615   15.7697  -17.7022 H   0  0  0  0  0  0  0  0  0  0  0  0
  -30.9135   14.8603  -15.9603 H   0  0  0  0  0  0  0  0  0  0  0  0
  -27.4018   18.4088  -15.6645 H   0  0  0  0  0  0  0  0  0  0  0  0
  1  2  1  0  0  0  0
  2  3  2  0  0  0  0
  2  6  1  0  0  0  0
  3  4  1  0  0  0  0
  4  5  1  0  0  0  0
  4  9  1  1  0  0  0
  4 10  1  0  0  0  0
  5  6  1  0  0  0  0
  5  7  1  1  0  0  0
  5  8  1  0  0  0  0
  6 11  1  0  0  0  0
  8 12  1  0  0  0  0
 10 13  1  0  0  0  0
M  END
>  <CHROM.0>
-59.89866021,-179.07545457,-66.41865729,-42.29480705,-177.31479566,-60.12853922
-65.88110518,-56.82889248,-169.85667968

>  <CHROM.1>
11.12789470,158.81468677,-29.37373362,16.95658706,-15.97746461,-2.43576681
1.02251737,2.89523004

>  <Name>
P123406382

>  <RI>
0

>  <Rbt.Current_Directory>
/home/fstefaniak/projects/zuza/docking/adenine/4TZX

>  <Rbt.Executable>
rbdock ($Id: //depot/dev/client3/rdock/2013.1/src/exe/rbdock.cxx#4 $)

>  <Rbt.Library>
libRbt.so (2013.1, Build901 2013/11/27)

>  <Rbt.Parameter_File>
/home/fstefaniak/progs/rDock//data/scripts/dock_solv.prm

>  <Rbt.Receptor>
4tzx.prm

>  <SCORE>
-41.6013

>  <SCORE.INTER>
-21.2657

>  <SCORE.INTER.CONST>
1

>  <SCORE.INTER.POLAR>
-3.98457

>  <SCORE.INTER.ROT>
0

>  <SCORE.INTER.SOLV>
11.8768

>  <SCORE.INTER.VDW>
-8.45419

>  <SCORE.INTER.norm>
-2.12657

>  <SCORE.INTRA>
0.767099

>  <SCORE.INTRA.DIHEDRAL>
0.837653

>  <SCORE.INTRA.DIHEDRAL.0>
6.81156

>  <SCORE.INTRA.POLAR>
0

>  <SCORE.INTRA.POLAR.0>
0

>  <SCORE.INTRA.REPUL>
0

>  <SCORE.INTRA.REPUL.0>
0

>  <SCORE.INTRA.SOLV>
0.039843

>  <SCORE.INTRA.SOLV.lig_0>
-12.1465

>  <SCORE.INTRA.VDW>
0.328351

>  <SCORE.INTRA.VDW.0>
-0.301605

>  <SCORE.INTRA.norm>
0.0767099

>  <SCORE.RESTR>
0

>  <SCORE.RESTR.CAVITY>
0

>  <SCORE.RESTR.norm>
0

>  <SCORE.SYSTEM>
-21.1027

>  <SCORE.SYSTEM.CONST>
0

>  <SCORE.SYSTEM.DIHEDRAL>
4.40442

>  <SCORE.SYSTEM.POLAR>
-3.04182

>  <SCORE.SYSTEM.SOLV>
-0.0142519

>  <SCORE.SYSTEM.VDW>
-5.39242

>  <SCORE.SYSTEM.norm>
-2.11027

>  <SCORE.heavy>
10

>  <SCORE.norm>
-4.16013

$$$$
P123406382
 OpenBabel12072022113D
libRbt.so/2013.1/901 2013/11/27
 13 13  0  0  0  0  0  0  0  0999 V2000
  -30.5448   18.4016  -18.3462 C   0  0  0  0  0  0  0  0  0  0  0  0
  -29.8800   17.7411  -17.1790 C   0  0  0  0  0  0  0  0  0  0  0  0
  -29.5633   18.4139  -16.1025 N   0  0  0  0  0  0  0  0  0  0  0  0
  -28.9200   17.3996  -15.2103 C   0  0  2  0  0  0  0  0  0  0  0  0
  -29.3622   16.0006  -15.8166 C   0  0  1  0  0  0  0  0  0  0  0  0
  -29.6430   16.3932  -17.1746 N   0  0  0  0  0  0  0  0  0  0  0  0
  -28.3099   14.9098  -15.7676 C   0  0  0  0  0  0  0  0  0  0  0  0
  -30.5840   15.5045  -15.2971 O   0  0  0  0  0  0  0  0  0  0  0  0
  -29.4103   17.6260  -13.7848 C   0  0  0  0  0  0  0  0  0  0  0  0
  -27.5072   17.5666  -15.2082 O   0  0  0  0  0  0  0  0  0  0  0  0
  -30.2523   15.7803  -17.7000 H   0  0  0  0  0  0  0  0  0  0  0  0
  -30.8967   14.8590  -15.9534 H   0  0  0  0  0  0  0  0  0  0  0  0
  -27.3983   18.4279  -15.6493 H   0  0  0  0  0  0  0  0  0  0  0  0
  1  2  1  0  0  0  0
  2  3  2  0  0  0  0
  2  6  1  0  0  0  0
  3  4  1  0  0  0  0
  4  5  1  0  0  0  0
  4  9  1  1  0  0  0
  4 10  1  0  0  0  0
  5  6  1  0  0  0  0
  5  7  1  1  0  0  0
  5  8  1  0  0  0  0
  6 11  1  0  0  0  0
  8 12  1  0  0  0  0
 10 13  1  0  0  0  0
M  END
>  <CHROM.0>
-60.19472058,178.80664868,-67.94778508,-43.62992412,-58.31556618,-58.42652617
-66.36835357,-60.86092411,-168.94936901

>  <CHROM.1>
11.81653552,159.56614105,-29.36687406,16.96706596,-15.97387623,-2.43906410
1.02313266,2.89921207

>  <Name>
P123406382

>  <RI>
0

>  <Rbt.Current_Directory>
/home/fstefaniak/projects/zuza/docking/adenine/4TZX

>  <Rbt.Executable>
rbdock ($Id: //depot/dev/client3/rdock/2013.1/src/exe/rbdock.cxx#4 $)

>  <Rbt.Library>
libRbt.so (2013.1, Build901 2013/11/27)

>  <Rbt.Parameter_File>
/home/fstefaniak/progs/rDock//data/scripts/dock_solv.prm

>  <Rbt.Receptor>
4tzx.prm

>  <SCORE>
-41.5588

>  <SCORE.INTER>
-21.2605

>  <SCORE.INTER.CONST>
1

>  <SCORE.INTER.POLAR>
-3.97499

>  <SCORE.INTER.ROT>
0

>  <SCORE.INTER.SOLV>
11.8654

>  <SCORE.INTER.VDW>
-8.47886

>  <SCORE.INTER.norm>
-2.12605

>  <SCORE.INTRA>
0.704489

>  <SCORE.INTRA.DIHEDRAL>
0.680646

>  <SCORE.INTRA.DIHEDRAL.0>
6.81156

>  <SCORE.INTRA.POLAR>
0

>  <SCORE.INTRA.POLAR.0>
0

>  <SCORE.INTRA.REPUL>
0

>  <SCORE.INTRA.REPUL.0>
0

>  <SCORE.INTRA.SOLV>
0.0389255

>  <SCORE.INTRA.SOLV.lig_0>
-12.1465

>  <SCORE.INTRA.VDW>
0.344703

>  <SCORE.INTRA.VDW.0>
-0.301605

>  <SCORE.INTRA.norm>
0.0704489

>  <SCORE.RESTR>
0

>  <SCORE.RESTR.CAVITY>
0

>  <SCORE.RESTR.norm>
0

>  <SCORE.SYSTEM>
-21.0028

>  <SCORE.SYSTEM.CONST>
0

>  <SCORE.SYSTEM.DIHEDRAL>
4.37327

>  <SCORE.SYSTEM.POLAR>
-3.0396

>  <SCORE.SYSTEM.SOLV>
0.163835

>  <SCORE.SYSTEM.VDW>
-5.38224

>  <SCORE.SYSTEM.norm>
-2.10028

>  <SCORE.heavy>
10

>  <SCORE.norm>
-4.15588

$$$$
P125443838
 OpenBabel12072022113D
libRbt.so/2013.1/901 2013/11/27
 11 11  0  0  0  0  0  0  0  0999 V2000
  -24.4032   11.9845  -16.6898 C   0  0  0  0  0  0  0  0  0  0  0  0
  -25.2683   12.5246  -15.6415 N   0  0  0  0  0  0  0  0  0  0  0  0
  -25.4143   13.9882  -15.7604 C   0  0  0  0  0  0  0  0  0  0  0  0
  -26.3456   14.4627  -16.8991 C   0  0  0  0  0  0  0  0  0  0  0  0
  -27.6754   13.8196  -16.9072 N   0  0  0  0  0  0  0  0  0  0  0  0
  -27.5354   12.3533  -16.7942 C   0  0  0  0  0  0  0  0  0  0  0  0
  -26.5992   11.8876  -15.6560 C   0  0  0  0  0  0  0  0  0  0  0  0
  -28.5001   14.3351  -15.8945 N   0  0  0  0  0  0  0  0  0  0  0  0
  -29.0370   15.5923  -16.0052 C   0  0  0  0  0  0  0  0  0  0  0  0
  -29.7619   16.0929  -15.1549 O   0  0  0  0  0  0  0  0  0  0  0  0
  -28.7238   13.8026  -15.0583 H   0  0  0  0  0  0  0  0  0  0  0  0
  1  2  1  0  0  0  0
  2  3  1  0  0  0  0
  2  7  1  0  0  0  0
  3  4  1  0  0  0  0
  4  5  1  0  0  0  0
  5  6  1  0  0  0  0
  5  8  1  0  0  0  0
  6  7  1  0  0  0  0
  8  9  1  0  0  0  0
  8 11  1  0  0  0  0
  9 10  2  0  0  0  0
M  END
>  <CHROM.0>
-61.32978789,-61.85634559,-64.72821605,-43.31691934,-58.16886573,-62.33706884
-67.96674195,-55.76529460,-168.96765851

>  <CHROM.1>
73.19690639,-27.07044833,13.71233940,-16.12390195,-0.67754697,0.03826436
0.13009174

>  <Name>
P125443838

>  <RI>
0

>  <Rbt.Current_Directory>
/home/fstefaniak/projects/zuza/docking/adenine/4TZX

>  <Rbt.Executable>
rbdock ($Id: //depot/dev/client3/rdock/2013.1/src/exe/rbdock.cxx#4 $)

>  <Rbt.Library>
libRbt.so (2013.1, Build901 2013/11/27)

>  <Rbt.Parameter_File>
/home/fstefaniak/progs/rDock//data/scripts/dock_solv.prm

>  <Rbt.Receptor>
4tzx.prm

>  <SCORE>
-36.063

>  <SCORE.INTER>
-15.4561

>  <SCORE.INTER.CONST>
1

>  <SCORE.INTER.POLAR>
-1.96702

>  <SCORE.INTER.ROT>
1

>  <SCORE.INTER.SOLV>
7.88398

>  <SCORE.INTER.VDW>
-10.642

>  <SCORE.INTER.norm>
-1.54561

>  <SCORE.INTRA>
0.568892

>  <SCORE.INTRA.DIHEDRAL>
1.05722e-05

>  <SCORE.INTRA.DIHEDRAL.0>
0.48

>  <SCORE.INTRA.POLAR>
0

>  <SCORE.INTRA.POLAR.0>
0

>  <SCORE.INTRA.REPUL>
0

>  <SCORE.INTRA.REPUL.0>
0

>  <SCORE.INTRA.SOLV>
0.00405702

>  <SCORE.INTRA.SOLV.lig_0>
-17.0793

>  <SCORE.INTRA.VDW>
0.566858

>  <SCORE.INTRA.VDW.0>
-0.486874

>  <SCORE.INTRA.norm>
0.0568892

>  <SCORE.RESTR>
0.00754112

>  <SCORE.RESTR.CAVITY>
0.00754112

>  <SCORE.RESTR.norm>
0.000754112

>  <SCORE.SYSTEM>
-21.1833

>  <SCORE.SYSTEM.CONST>
0

>  <SCORE.SYSTEM.DIHEDRAL>
4.44566

>  <SCORE.SYSTEM.POLAR>
-3.05285

>  <SCORE.SYSTEM.SOLV>
0.185021

>  <SCORE.SYSTEM.VDW>
-5.48957

>  <SCORE.SYSTEM.norm>
-2.11833

>  <SCORE.heavy>
10

>  <SCORE.norm>
-3.6063

$$$$
P125443838
 OpenBabel12072022113D
libRbt.so/2013.1/901 2013/11/27
 11 11  0  0  0  0  0  0  0  0999 V2000
  -24.3460   12.1706  -16.6812 C   0  0  0  0  0  0  0  0  0  0  0  0
  -25.2447   12.6735  -15.6428 N   0  0  0  0  0  0  0  0  0  0  0  0
  -25.4617   14.1274  -15.7718 C   0  0  0  0  0  0  0  0  0  0  0  0
  -26.4065   14.5488  -16.9203 C   0  0  0  0  0  0  0  0  0  0  0  0
  -27.7028   13.8408  -16.9343 N   0  0  0  0  0  0  0  0  0  0  0  0
  -27.4917   12.3840  -16.8112 C   0  0  0  0  0  0  0  0  0  0  0  0
  -26.5425   11.9715  -15.6632 C   0  0  0  0  0  0  0  0  0  0  0  0
  -28.5598   14.3209  -15.9310 N   0  0  0  0  0  0  0  0  0  0  0  0
  -29.1699   15.5424  -16.0610 C   0  0  0  0  0  0  0  0  0  0  0  0
  -29.9258   16.0112  -15.2196 O   0  0  0  0  0  0  0  0  0  0  0  0
  -28.7541   13.7881  -15.0877 H   0  0  0  0  0  0  0  0  0  0  0  0
  1  2  1  0  0  0  0
  2  3  1  0  0  0  0
  2  7  1  0  0  0  0
  3  4  1  0  0  0  0
  4  5  1  0  0  0  0
  5  6  1  0  0  0  0
  5  8  1  0  0  0  0
  6  7  1  0  0  0  0
  8  9  1  0  0  0  0
  8 11  1  0  0  0  0
  9 10  2  0  0  0  0
M  END
>  <CHROM.0>
-60.90943431,-66.35193829,-69.90948793,-43.26928518,-178.83726478,-62.73399570
-171.50099198,-174.56422354,-169.38899810

>  <CHROM.1>
73.99327776,-27.10202710,13.76666286,-16.14742033,-0.62508949,0.03787408
0.11896522

>  <Name>
P125443838

>  <RI>
0

>  <Rbt.Current_Directory>
/home/fstefaniak/projects/zuza/docking/adenine/4TZX

>  <Rbt.Executable>
rbdock ($Id: //depot/dev/client3/rdock/2013.1/src/exe/rbdock.cxx#4 $)

>  <Rbt.Library>
libRbt.so (2013.1, Build901 2013/11/27)

>  <Rbt.Parameter_File>
/home/fstefaniak/progs/rDock//data/scripts/dock_solv.prm

>  <Rbt.Receptor>
4tzx.prm

>  <SCORE>
-35.4934

>  <SCORE.INTER>
-15.3786

>  <SCORE.INTER.CONST>
1

>  <SCORE.INTER.POLAR>
-1.96681

>  <SCORE.INTER.ROT>
1

>  <SCORE.INTER.SOLV>
8.2877

>  <SCORE.INTER.VDW>
-10.7256

>  <SCORE.INTER.norm>
-1.53786

>  <SCORE.INTRA>
0.546213

>  <SCORE.INTRA.DIHEDRAL>
1.10026e-05

>  <SCORE.INTRA.DIHEDRAL.0>
0.48

>  <SCORE.INTRA.POLAR>
0

>  <SCORE.INTRA.POLAR.0>
0

>  <SCORE.INTRA.REPUL>
0

>  <SCORE.INTRA.REPUL.0>
0

>  <SCORE.INTRA.SOLV>
0.00393835

>  <SCORE.INTRA.SOLV.lig_0>
-17.0793

>  <SCORE.INTRA.VDW>
0.544239

>  <SCORE.INTRA.VDW.0>
-0.486874

>  <SCORE.INTRA.norm>
0.0546213

>  <SCORE.RESTR>
0.00147935

>  <SCORE.RESTR.CAVITY>
0.00147935

>  <SCORE.RESTR.norm>
0.000147935

>  <SCORE.SYSTEM>
-20.6625

>  <SCORE.SYSTEM.CONST>
0

>  <SCORE.SYSTEM.DIHEDRAL>
5.01343

>  <SCORE.SYSTEM.POLAR>
-3.02227

>  <SCORE.SYSTEM.SOLV>
-0.165331

>  <SCORE.SYSTEM.VDW>
-5.31678

>  <SCORE.SYSTEM.norm>
-2.06625

>  <SCORE.heavy>
10

>  <SCORE.norm>
-3.54934

$$$$
P125443838
 OpenBabel12072022113D
libRbt.so/2013.1/901 2013/11/27
 11 11  0  0  0  0  0  0  0  0999 V2000
  -25.2723   13.2947  -16.2205 C   0  0  0  0  0  0  0  0  0  0  0  0
  -26.0374   14.0506  -17.2116 N   0  0  0  0  0  0  0  0  0  0  0  0
  -27.4887   13.8336  -17.0560 C   0  0  0  0  0  0  0  0  0  0  0  0
  -28.1364   14.5702  -15.8614 C   0  0  0  0  0  0  0  0  0  0  0  0
  -27.8313   16.0141  -15.7974 N   0  0  0  0  0  0  0  0  0  0  0  0
  -26.3787   16.2374  -15.9468 C   0  0  0  0  0  0  0  0  0  0  0  0
  -25.7383   15.4939  -17.1410 C   0  0  0  0  0  0  0  0  0  0  0  0
  -28.5617   16.7352  -16.7556 N   0  0  0  0  0  0  0  0  0  0  0  0
  -29.6592   17.4705  -16.3870 C   0  0  0  0  0  0  0  0  0  0  0  0
  -30.3333   18.1180  -17.1779 O   0  0  0  0  0  0  0  0  0  0  0  0
  -28.3061   16.7367  -17.7391 H   0  0  0  0  0  0  0  0  0  0  0  0
  1  2  1  0  0  0  0
  2  3  1  0  0  0  0
  2  7  1  0  0  0  0
  3  4  1  0  0  0  0
  4  5  1  0  0  0  0
  5  6  1  0  0  0  0
  5  8  1  0  0  0  0
  6  7  1  0  0  0  0
  8  9  1  0  0  0  0
  8 11  1  0  0  0  0
  9 10  2  0  0  0  0
M  END
>  <CHROM.0>
-60.74011687,-59.72072286,-64.34848168,-42.60489374,-177.91623355,-60.26690899
-67.56426482,-174.91112980,-168.65330052

>  <CHROM.1>
103.33547031,-27.55667945,15.59548843,-16.57124216,0.75752688,0.01747872
3.12531031

>  <Name>
P125443838

>  <RI>
0

>  <Rbt.Current_Directory>
/home/fstefaniak/projects/zuza/docking/adenine/4TZX

>  <Rbt.Executable>
rbdock ($Id: //depot/dev/client3/rdock/2013.1/src/exe/rbdock.cxx#4 $)

>  <Rbt.Library>
libRbt.so (2013.1, Build901 2013/11/27)

>  <Rbt.Parameter_File>
/home/fstefaniak/progs/rDock//data/scripts/dock_solv.prm

>  <Rbt.Receptor>
4tzx.prm

>  <SCORE>
-35.423

>  <SCORE.INTER>
-14.2252

>  <SCORE.INTER.CONST>
1

>  <SCORE.INTER.POLAR>
-1.27128

>  <SCORE.INTER.ROT>
1

>  <SCORE.INTER.SOLV>
10.3883

>  <SCORE.INTER.VDW>
-12.9753

>  <SCORE.INTER.norm>
-1.42252

>  <SCORE.INTRA>
0.0642621

>  <SCORE.INTRA.DIHEDRAL>
1.05002e-05

>  <SCORE.INTRA.DIHEDRAL.0>
0.48

>  <SCORE.INTRA.POLAR>
0

>  <SCORE.INTRA.POLAR.0>
0

>  <SCORE.INTRA.REPUL>
0

>  <SCORE.INTRA.REPUL.0>
0

>  <SCORE.INTRA.SOLV>
-0.000291193

>  <SCORE.INTRA.SOLV.lig_0>
-17.0793

>  <SCORE.INTRA.VDW>
0.0644025

>  <SCORE.INTRA.VDW.0>
-0.486874

>  <SCORE.INTRA.norm>
0.00642621

>  <SCORE.RESTR>
0

>  <SCORE.RESTR.CAVITY>
0

>  <SCORE.RESTR.norm>
0

>  <SCORE.SYSTEM>
-21.2621

>  <SCORE.SYSTEM.CONST>
0

>  <SCORE.SYSTEM.DIHEDRAL>
4.52784

>  <SCORE.SYSTEM.POLAR>
-3.05435

>  <SCORE.SYSTEM.SOLV>
-0.128962

>  <SCORE.SYSTEM.VDW>
-5.45983

>  <SCORE.SYSTEM.norm>
-2.12621

>  <SCORE.heavy>
10

>  <SCORE.norm>
-3.5423

$$$$
P12618448
 OpenBabel12072022113D
libRbt.so/2013.1/901 2013/11/27
 14 14  0  0  0  0  0  0  0  0999 V2000
  -27.5247   14.8632  -16.3492 C   0  0  0  0  0  0  0  0  0  0  0  0
  -29.0185   14.7800  -16.0849 C   0  0  0  0  0  0  0  0  0  0  0  0
  -29.6565   16.1174  -16.1659 C   0  0  0  0  0  0  0  0  0  0  0  0
  -29.7525   16.9225  -17.2039 N   0  0  0  0  0  0  0  0  0  0  0  0
  -30.4300   18.0106  -16.6951 C   0  0  0  0  0  0  0  0  0  0  0  0
  -30.7215   17.8239  -15.3591 C   0  0  0  0  0  0  0  0  0  0  0  0
  -30.2157   16.5985  -15.0135 O   0  0  0  0  0  0  0  0  0  0  0  0
  -31.3263   18.5068  -14.3542 N   0  0  0  0  0  0  0  0  0  0  0  0
  -32.1609   17.6938  -13.5631 N   0  0  0  0  0  0  0  0  0  0  0  0
  -30.7248   19.1506  -17.4974 C   0  0  0  0  0  0  0  0  0  0  0  0
  -30.9633   20.0995  -18.1254 N   0  0  0  0  0  0  0  0  0  0  0  0
  -30.6890   19.1297  -13.8474 H   0  0  0  0  0  0  0  0  0  0  0  0
  -33.0286   18.1880  -13.3231 H   0  0  0  0  0  0  0  0  0  0  0  0
  -31.7250   17.5119  -12.6535 H   0  0  0  0  0  0  0  0  0  0  0  0
  1  2  1  0  0  0  0
  2  3  1  0  0  0  0
  3  4  2  0  0  0  0
  3  7  1  0  0  0  0
  4  5  1  0  0  0  0
  5  6  2  0  0  0  0
  5 10  1  0  0  0  0
  6  7  1  0  0  0  0
  6  8  1  0  0  0  0
  8  9  1  0  0  0  0
  8 12  1  0  0  0  0
  9 13  1  0  0  0  0
  9 14  1  0  0  0  0
 10 11  3  0  0  0  0
M  END
>  <CHROM.0>
-60.97091819,176.91131985,-70.41187186,176.57709023,-60.88656964,-67.24371076
-166.90725267,-60.67250558,-169.78499634

>  <CHROM.1>
63.32158355,137.92597095,-139.36967657,-30.23157728,17.29303188,-15.95066462
-0.46662344,0.85301262,-0.92070440

>  <Name>
P12618448

>  <RI>
0

>  <Rbt.Current_Directory>
/home/fstefaniak/projects/zuza/docking/adenine/4TZX

>  <Rbt.Executable>
rbdock ($Id: //depot/dev/client3/rdock/2013.1/src/exe/rbdock.cxx#4 $)

>  <Rbt.Library>
libRbt.so (2013.1, Build901 2013/11/27)

>  <Rbt.Parameter_File>
/home/fstefaniak/progs/rDock//data/scripts/dock_solv.prm

>  <Rbt.Receptor>
4tzx.prm

>  <SCORE>
-60.7606

>  <SCORE.INTER>
-43.2528

>  <SCORE.INTER.CONST>
1

>  <SCORE.INTER.POLAR>
-5.99844

>  <SCORE.INTER.ROT>
3

>  <SCORE.INTER.SOLV>
15.5889

>  <SCORE.INTER.VDW>
-19.6367

>  <SCORE.INTER.norm>
-3.93208

>  <SCORE.INTRA>
0.422992

>  <SCORE.INTRA.DIHEDRAL>
0.657417

>  <SCORE.INTRA.DIHEDRAL.0>
2.24048

>  <SCORE.INTRA.POLAR>
0

>  <SCORE.INTRA.POLAR.0>
0

>  <SCORE.INTRA.REPUL>
0

>  <SCORE.INTRA.REPUL.0>
0

>  <SCORE.INTRA.SOLV>
-0.439109

>  <SCORE.INTRA.SOLV.lig_0>
-17.7927

>  <SCORE.INTRA.VDW>
0.313838

>  <SCORE.INTRA.VDW.0>
-1.02598

>  <SCORE.INTRA.norm>
0.0384539

>  <SCORE.RESTR>
0

>  <SCORE.RESTR.CAVITY>
0

>  <SCORE.RESTR.norm>
0

>  <SCORE.SYSTEM>
-17.9307

>  <SCORE.SYSTEM.CONST>
0

>  <SCORE.SYSTEM.DIHEDRAL>
4.16774

>  <SCORE.SYSTEM.POLAR>
-2.42424

>  <SCORE.SYSTEM.SOLV>
-0.0476368

>  <SCORE.SYSTEM.VDW>
-5.24639

>  <SCORE.SYSTEM.norm>
-1.63006

>  <SCORE.heavy>
11

>  <SCORE.norm>
-5.52369

$$$$
P12618448
 OpenBabel12072022113D
libRbt.so/2013.1/901 2013/11/27
 14 14  0  0  0  0  0  0  0  0999 V2000
  -27.6364   14.7931  -16.3460 C   0  0  0  0  0  0  0  0  0  0  0  0
  -29.1396   14.7545  -16.1295 C   0  0  0  0  0  0  0  0  0  0  0  0
  -29.7282   16.1157  -16.1839 C   0  0  0  0  0  0  0  0  0  0  0  0
  -29.7853   16.9480  -17.2031 N   0  0  0  0  0  0  0  0  0  0  0  0
  -30.4278   18.0477  -16.6743 C   0  0  0  0  0  0  0  0  0  0  0  0
  -30.7384   17.8403  -15.3456 C   0  0  0  0  0  0  0  0  0  0  0  0
  -30.2805   16.5895  -15.0251 O   0  0  0  0  0  0  0  0  0  0  0  0
  -31.3275   18.5208  -14.3299 N   0  0  0  0  0  0  0  0  0  0  0  0
  -32.1784   17.7141  -13.5499 N   0  0  0  0  0  0  0  0  0  0  0  0
  -30.6736   19.2164  -17.4516 C   0  0  0  0  0  0  0  0  0  0  0  0
  -30.8718   20.1878  -18.0586 N   0  0  0  0  0  0  0  0  0  0  0  0
  -30.6765   19.1224  -13.8147 H   0  0  0  0  0  0  0  0  0  0  0  0
  -33.0364   18.2220  -13.3036 H   0  0  0  0  0  0  0  0  0  0  0  0
  -31.7467   17.5116  -12.6427 H   0  0  0  0  0  0  0  0  0  0  0  0
  1  2  1  0  0  0  0
  2  3  1  0  0  0  0
  3  4  2  0  0  0  0
  3  7  1  0  0  0  0
  4  5  1  0  0  0  0
  5  6  2  0  0  0  0
  5 10  1  0  0  0  0
  6  7  1  0  0  0  0
  6  8  1  0  0  0  0
  8  9  1  0  0  0  0
  8 12  1  0  0  0  0
  9 13  1  0  0  0  0
  9 14  1  0  0  0  0
 10 11  3  0  0  0  0
M  END
>  <CHROM.0>
-58.70977694,177.14950217,-60.45132664,51.02545365,-58.61825217,-58.93589077
-67.39801116,-54.98825509,-168.79147734

>  <CHROM.1>
64.67980808,139.07902509,-139.21168971,-30.25978770,17.30590266,-15.94067442
-0.51752975,0.87623028,-0.86653969

>  <Name>
P12618448

>  <RI>
0

>  <Rbt.Current_Directory>
/home/fstefaniak/projects/zuza/docking/adenine/4TZX

>  <Rbt.Executable>
rbdock ($Id: //depot/dev/client3/rdock/2013.1/src/exe/rbdock.cxx#4 $)

>  <Rbt.Library>
libRbt.so (2013.1, Build901 2013/11/27)

>  <Rbt.Parameter_File>
/home/fstefaniak/progs/rDock//data/scripts/dock_solv.prm

>  <Rbt.Receptor>
4tzx.prm

>  <SCORE>
-60.5602

>  <SCORE.INTER>
-43.291

>  <SCORE.INTER.CONST>
1

>  <SCORE.INTER.POLAR>
-6.00681

>  <SCORE.INTER.ROT>
3

>  <SCORE.INTER.SOLV>
15.8525

>  <SCORE.INTER.VDW>
-19.7222

>  <SCORE.INTER.norm>
-3.93555

>  <SCORE.INTRA>
0.431072

>  <SCORE.INTRA.DIHEDRAL>
0.661956

>  <SCORE.INTRA.DIHEDRAL.0>
2.24048

>  <SCORE.INTRA.POLAR>
0

>  <SCORE.INTRA.POLAR.0>
0

>  <SCORE.INTRA.REPUL>
0

>  <SCORE.INTRA.REPUL.0>
0

>  <SCORE.INTRA.SOLV>
-0.437743

>  <SCORE.INTRA.SOLV.lig_0>
-17.7927

>  <SCORE.INTRA.VDW>
0.318966

>  <SCORE.INTRA.VDW.0>
-1.02598

>  <SCORE.INTRA.norm>
0.0391884

>  <SCORE.RESTR>
0

>  <SCORE.RESTR.CAVITY>
0

>  <SCORE.RESTR.norm>
0

>  <SCORE.SYSTEM>
-17.7002

>  <SCORE.SYSTEM.CONST>
0

>  <SCORE.SYSTEM.DIHEDRAL>
3.4765

>  <SCORE.SYSTEM.POLAR>
-2.49871

>  <SCORE.SYSTEM.SOLV>
0.124507

>  <SCORE.SYSTEM.VDW>
-4.67147

>  <SCORE.SYSTEM.norm>
-1.60911

>  <SCORE.heavy>
11

>  <SCORE.norm>
-5.50547

$$$$
P12618448
 OpenBabel12072022113D
libRbt.so/2013.1/901 2013/11/27
 14 14  0  0  0  0  0  0  0  0999 V2000
  -26.8483   14.6265  -16.5082 C   0  0  0  0  0  0  0  0  0  0  0  0
  -28.3374   14.3505  -16.6285 C   0  0  0  0  0  0  0  0  0  0  0  0
  -29.1334   15.5874  -16.4327 C   0  0  0  0  0  0  0  0  0  0  0  0
  -29.3092   16.5938  -17.2640 N   0  0  0  0  0  0  0  0  0  0  0  0
  -30.1242   17.4493  -16.5529 C   0  0  0  0  0  0  0  0  0  0  0  0
  -30.4144   16.9267  -15.3089 C   0  0  0  0  0  0  0  0  0  0  0  0
  -29.7681   15.7214  -15.2279 O   0  0  0  0  0  0  0  0  0  0  0  0
  -31.1164   17.2844  -14.2039 N   0  0  0  0  0  0  0  0  0  0  0  0
  -30.3062   17.8420  -13.1959 N   0  0  0  0  0  0  0  0  0  0  0  0
  -30.5426   18.7019  -17.0879 C   0  0  0  0  0  0  0  0  0  0  0  0
  -30.8847   19.7360  -17.4942 N   0  0  0  0  0  0  0  0  0  0  0  0
  -31.9817   17.7899  -14.4202 H   0  0  0  0  0  0  0  0  0  0  0  0
  -30.7052   17.6614  -12.2670 H   0  0  0  0  0  0  0  0  0  0  0  0
  -30.3028   18.8646  -13.2646 H   0  0  0  0  0  0  0  0  0  0  0  0
  1  2  1  0  0  0  0
  2  3  1  0  0  0  0
  3  4  2  0  0  0  0
  3  7  1  0  0  0  0
  4  5  1  0  0  0  0
  5  6  2  0  0  0  0
  5 10  1  0  0  0  0
  6  7  1  0  0  0  0
  6  8  1  0  0  0  0
  8  9  1  0  0  0  0
  8 12  1  0  0  0  0
  9 13  1  0  0  0  0
  9 14  1  0  0  0  0
 10 11  3  0  0  0  0
M  END
>  <CHROM.0>
-63.19467544,177.84221617,-65.39867822,-43.59904020,-176.86167281,-65.05401577
-61.11483875,-58.93297163,-169.96297265

>  <CHROM.1>
75.20792958,-97.91125859,-150.97362563,-29.69645711,16.77941889,-15.91321443
-0.15085813,0.92280143,-1.14931571

>  <Name>
P12618448

>  <RI>
0

>  <Rbt.Current_Directory>
/home/fstefaniak/projects/zuza/docking/adenine/4TZX

>  <Rbt.Executable>
rbdock ($Id: //depot/dev/client3/rdock/2013.1/src/exe/rbdock.cxx#4 $)

>  <Rbt.Library>
libRbt.so (2013.1, Build901 2013/11/27)

>  <Rbt.Parameter_File>
/home/fstefaniak/progs/rDock//data/scripts/dock_solv.prm

>  <Rbt.Receptor>
4tzx.prm

>  <SCORE>
-59.4001

>  <SCORE.INTER>
-38.3672

>  <SCORE.INTER.CONST>
1

>  <SCORE.INTER.POLAR>
-5.02467

>  <SCORE.INTER.ROT>
3

>  <SCORE.INTER.SOLV>
14.4205

>  <SCORE.INTER.VDW>
-19.2361

>  <SCORE.INTER.norm>
-3.48793

>  <SCORE.INTRA>
-0.102717

>  <SCORE.INTRA.DIHEDRAL>
0.20254

>  <SCORE.INTRA.DIHEDRAL.0>
2.24048

>  <SCORE.INTRA.POLAR>
0

>  <SCORE.INTRA.POLAR.0>
0

>  <SCORE.INTRA.REPUL>
0

>  <SCORE.INTRA.REPUL.0>
0

>  <SCORE.INTRA.SOLV>
-0.432143

>  <SCORE.INTRA.SOLV.lig_0>
-17.7927

>  <SCORE.INTRA.VDW>
0.0120843

>  <SCORE.INTRA.VDW.0>
-1.02598

>  <SCORE.INTRA.norm>
-0.00933793

>  <SCORE.RESTR>
0

>  <SCORE.RESTR.CAVITY>
0

>  <SCORE.RESTR.norm>
0

>  <SCORE.SYSTEM>
-20.9302

>  <SCORE.SYSTEM.CONST>
0

>  <SCORE.SYSTEM.DIHEDRAL>
4.15615

>  <SCORE.SYSTEM.POLAR>
-3.00041

>  <SCORE.SYSTEM.SOLV>
-0.019578

>  <SCORE.SYSTEM.VDW>
-5.33091

>  <SCORE.SYSTEM.norm>
-1.90274

>  <SCORE.heavy>
11

>  <SCORE.norm>
-5.40001

$$$$
P126500777
 OpenBabel12072022113D
libRbt.so/2013.1/901 2013/11/27
 14 14  0  0  0  0  0  0  0  0999 V2000
  -32.1823   18.8295  -17.3464 C   0  0  0  0  0  0  0  0  0  0  0  0
  -31.8792   17.8667  -16.1940 C   0  0  0  0  0  0  0  0  0  0  0  0
  -30.4821   18.0610  -15.5992 C   0  0  0  0  0  0  0  0  0  0  0  0
  -29.3245   17.4051  -16.3555 C   0  0  2  0  0  0  0  0  0  0  0  0
  -29.6226   17.2405  -17.8139 N   0  3  0  0  0  0  0  0  0  0  0  0
  -28.6954   16.8134  -18.1112 H   0  0  0  0  0  0  0  0  0  0  0  0
  -30.1930   16.3971  -17.9464 H   0  0  0  0  0  0  0  0  0  0  0  0
  -29.9925   18.3899  -18.6263 C   0  0  0  0  0  0  0  0  0  0  0  0
  -31.5085   18.5004  -18.6782 C   0  0  0  0  0  0  0  0  0  0  0  0
  -28.8954   16.0229  -15.7941 C   0  0  0  0  0  0  0  0  0  0  0  0
  -29.4807   15.4571  -14.8735 O   0  0  0  0  0  0  0  0  0  0  0  0
  -27.8200   15.4256  -16.4445 N   0  0  0  0  0  0  0  0  0  0  0  0
  -26.9933   14.5379  -15.7728 O   0  5  0  0  0  0  0  0  0  0  0  0
  -27.9152   15.2706  -17.4479 H   0  0  0  0  0  0  0  0  0  0  0  0
  1  2  1  0  0  0  0
  1  9  1  0  0  0  0
  2  3  1  0  0  0  0
  3  4  1  0  0  0  0
  4  5  1  0  0  0  0
  4 10  1  1  0  0  0
  5  6  1  0  0  0  0
  5  7  1  0  0  0  0
  5  8  1  0  0  0  0
  8  9  1  0  0  0  0
 10 11  2  0  0  0  0
 10 12  1  0  0  0  0
 12 13  1  0  0  0  0
 12 14  1  0  0  0  0
M  CHG  2   5   1  13  -1
M  END
>  <CHROM.0>
-62.09802837,-59.02927142,-64.92753016,-43.43047992,-56.97903003,-59.15657257
-66.09211134,-58.88871390,-168.84596948

>  <CHROM.1>
4.24746932,152.86585074,-29.79309217,17.00934893,-16.68312883,2.51342713
0.58248092,-1.16709740

>  <Name>
P126500777

>  <RI>
0

>  <Rbt.Current_Directory>
/home/fstefaniak/projects/zuza/docking/adenine/4TZX

>  <Rbt.Executable>
rbdock ($Id: //depot/dev/client3/rdock/2013.1/src/exe/rbdock.cxx#4 $)

>  <Rbt.Library>
libRbt.so (2013.1, Build901 2013/11/27)

>  <Rbt.Parameter_File>
/home/fstefaniak/progs/rDock//data/scripts/dock_solv.prm

>  <Rbt.Receptor>
4tzx.prm

>  <SCORE>
-42.8945

>  <SCORE.INTER>
-17.9334

>  <SCORE.INTER.CONST>
1

>  <SCORE.INTER.POLAR>
-3.53771

>  <SCORE.INTER.ROT>
2

>  <SCORE.INTER.SOLV>
22.4107

>  <SCORE.INTER.VDW>
-12.5668

>  <SCORE.INTER.norm>
-1.63031

>  <SCORE.INTRA>
-3.83519

>  <SCORE.INTRA.DIHEDRAL>
-0.363448

>  <SCORE.INTRA.DIHEDRAL.0>
1.64509

>  <SCORE.INTRA.POLAR>
-0.172525

>  <SCORE.INTRA.POLAR.0>
0

>  <SCORE.INTRA.REPUL>
0

>  <SCORE.INTRA.REPUL.0>
0

>  <SCORE.INTRA.SOLV>
-6.03982

>  <SCORE.INTRA.SOLV.lig_0>
-46.0876

>  <SCORE.INTRA.VDW>
-0.0469714

>  <SCORE.INTRA.VDW.0>
-0.00449069

>  <SCORE.INTRA.norm>
-0.348653

>  <SCORE.RESTR>
0

>  <SCORE.RESTR.CAVITY>
0

>  <SCORE.RESTR.norm>
0

>  <SCORE.SYSTEM>
-21.1259

>  <SCORE.SYSTEM.CONST>
0

>  <SCORE.SYSTEM.DIHEDRAL>
4.26159

>  <SCORE.SYSTEM.POLAR>
-3.04333

>  <SCORE.SYSTEM.SOLV>
0.193551

>  <SCORE.SYSTEM.VDW>
-5.42454

>  <SCORE.SYSTEM.norm>
-1.92053

>  <SCORE.heavy>
11

>  <SCORE.norm>
-3.8995

$$$$
P126500777
 OpenBabel12072022113D
libRbt.so/2013.1/901 2013/11/27
 14 14  0  0  0  0  0  0  0  0999 V2000
  -32.1813   18.7883  -17.2825 C   0  0  0  0  0  0  0  0  0  0  0  0
  -31.8491   17.8319  -16.1327 C   0  0  0  0  0  0  0  0  0  0  0  0
  -30.4462   18.0455  -15.5586 C   0  0  0  0  0  0  0  0  0  0  0  0
  -29.2913   17.4030  -16.3303 C   0  0  2  0  0  0  0  0  0  0  0  0
  -29.6083   17.2313  -17.7839 N   0  3  0  0  0  0  0  0  0  0  0  0
  -28.6801   16.8156  -18.0937 H   0  0  0  0  0  0  0  0  0  0  0  0
  -30.1696   16.3804  -17.9064 H   0  0  0  0  0  0  0  0  0  0  0  0
  -30.0048   18.3741  -18.5931 C   0  0  0  0  0  0  0  0  0  0  0  0
  -31.5226   18.4650  -18.6233 C   0  0  0  0  0  0  0  0  0  0  0  0
  -28.8363   16.0277  -15.7725 C   0  0  0  0  0  0  0  0  0  0  0  0
  -29.4005   15.4566  -14.8420 O   0  0  0  0  0  0  0  0  0  0  0  0
  -27.7632   15.4425  -16.4376 N   0  0  0  0  0  0  0  0  0  0  0  0
  -26.9227   14.5573  -15.7798 O   0  5  0  0  0  0  0  0  0  0  0  0
  -27.8678   15.2927  -17.4408 H   0  0  0  0  0  0  0  0  0  0  0  0
  1  2  1  0  0  0  0
  1  9  1  0  0  0  0
  2  3  1  0  0  0  0
  3  4  1  0  0  0  0
  4  5  1  0  0  0  0
  4 10  1  1  0  0  0
  5  6  1  0  0  0  0
  5  7  1  0  0  0  0
  5  8  1  0  0  0  0
  8  9  1  0  0  0  0
 10 11  2  0  0  0  0
 10 12  1  0  0  0  0
 12 13  1  0  0  0  0
 12 14  1  0  0  0  0
M  CHG  2   5   1  13  -1
M  END
>  <CHROM.0>
-59.82078231,-62.42552736,-65.84954560,-42.65930883,-53.63899970,-57.57297124
-63.94710720,-57.96467539,-168.94845842

>  <CHROM.1>
4.21769526,153.47142746,-29.76018311,16.99954811,-16.65073099,2.53531311
0.57754389,-1.18121648

>  <Name>
P126500777

>  <RI>
0

>  <Rbt.Current_Directory>
/home/fstefaniak/projects/zuza/docking/adenine/4TZX

>  <Rbt.Executable>
rbdock ($Id: //depot/dev/client3/rdock/2013.1/src/exe/rbdock.cxx#4 $)

>  <Rbt.Library>
libRbt.so (2013.1, Build901 2013/11/27)

>  <Rbt.Parameter_File>
/home/fstefaniak/progs/rDock//data/scripts/dock_solv.prm

>  <Rbt.Receptor>
4tzx.prm

>  <SCORE>
-42.8723

>  <SCORE.INTER>
-18.0217

>  <SCORE.INTER.CONST>
1

>  <SCORE.INTER.POLAR>
-3.54382

>  <SCORE.INTER.ROT>
2

>  <SCORE.INTER.SOLV>
22.3037

>  <SCORE.INTER.VDW>
-12.5696

>  <SCORE.INTER.norm>
-1.63834

>  <SCORE.INTRA>
-3.80018

>  <SCORE.INTRA.DIHEDRAL>
-0.364223

>  <SCORE.INTRA.DIHEDRAL.0>
1.64509

>  <SCORE.INTRA.POLAR>
-0.172737

>  <SCORE.INTRA.POLAR.0>
0

>  <SCORE.INTRA.REPUL>
0

>  <SCORE.INTRA.REPUL.0>
0

>  <SCORE.INTRA.SOLV>
-6.03606

>  <SCORE.INTRA.SOLV.lig_0>
-46.0876

>  <SCORE.INTRA.VDW>
-0.0127301

>  <SCORE.INTRA.VDW.0>
-0.00449069

>  <SCORE.INTRA.norm>
-0.345471

>  <SCORE.RESTR>
0

>  <SCORE.RESTR.CAVITY>
0

>  <SCORE.RESTR.norm>
0

>  <SCORE.SYSTEM>
-21.0504

>  <SCORE.SYSTEM.CONST>
0

>  <SCORE.SYSTEM.DIHEDRAL>
4.49056

>  <SCORE.SYSTEM.POLAR>
-3.07929

>  <SCORE.SYSTEM.SOLV>
0.208835

>  <SCORE.SYSTEM.VDW>
-5.33578

>  <SCORE.SYSTEM.norm>
-1.91368

>  <SCORE.heavy>
11

>  <SCORE.norm>
-3.89748

$$$$
P126500777
 OpenBabel12072022113D
libRbt.so/2013.1/901 2013/11/27
 14 14  0  0  0  0  0  0  0  0999 V2000
  -32.1864   18.8265  -17.3628 C   0  0  0  0  0  0  0  0  0  0  0  0
  -31.8760   17.8780  -16.2005 C   0  0  0  0  0  0  0  0  0  0  0  0
  -30.4787   18.0858  -15.6108 C   0  0  0  0  0  0  0  0  0  0  0  0
  -29.3195   17.4272  -16.3624 C   0  0  2  0  0  0  0  0  0  0  0  0
  -29.6198   17.2451  -17.8182 N   0  3  0  0  0  0  0  0  0  0  0  0
  -28.6911   16.8193  -18.1128 H   0  0  0  0  0  0  0  0  0  0  0  0
  -30.1863   16.3975  -17.9401 H   0  0  0  0  0  0  0  0  0  0  0  0
  -29.9972   18.3836  -18.6424 C   0  0  0  0  0  0  0  0  0  0  0  0
  -31.5137   18.4861  -18.6923 C   0  0  0  0  0  0  0  0  0  0  0  0
  -28.8824   16.0535  -15.7867 C   0  0  0  0  0  0  0  0  0  0  0  0
  -29.4554   15.5007  -14.8506 O   0  0  0  0  0  0  0  0  0  0  0  0
  -27.8150   15.4473  -16.4422 N   0  0  0  0  0  0  0  0  0  0  0  0
  -26.9911   14.5545  -15.7737 O   0  5  0  0  0  0  0  0  0  0  0  0
  -27.9168   15.2916  -17.4448 H   0  0  0  0  0  0  0  0  0  0  0  0
  1  2  1  0  0  0  0
  1  9  1  0  0  0  0
  2  3  1  0  0  0  0
  3  4  1  0  0  0  0
  4  5  1  0  0  0  0
  4 10  1  1  0  0  0
  5  6  1  0  0  0  0
  5  7  1  0  0  0  0
  5  8  1  0  0  0  0
  8  9  1  0  0  0  0
 10 11  2  0  0  0  0
 10 12  1  0  0  0  0
 12 13  1  0  0  0  0
 12 14  1  0  0  0  0
M  CHG  2   5   1  13  -1
M  END
>  <CHROM.0>
-56.47411387,-61.86985653,-65.40707181,-43.65143511,-57.27022334,-60.85072917
-64.99087144,-59.66738742,-169.32400869

>  <CHROM.1>
3.56009456,153.83308237,-29.78880689,17.02319607,-16.68676785,2.51992686
0.58406640,-1.18301653

>  <Name>
P126500777

>  <RI>
0

>  <Rbt.Current_Directory>
/home/fstefaniak/projects/zuza/docking/adenine/4TZX

>  <Rbt.Executable>
rbdock ($Id: //depot/dev/client3/rdock/2013.1/src/exe/rbdock.cxx#4 $)

>  <Rbt.Library>
libRbt.so (2013.1, Build901 2013/11/27)

>  <Rbt.Parameter_File>
/home/fstefaniak/progs/rDock//data/scripts/dock_solv.prm

>  <Rbt.Receptor>
4tzx.prm

>  <SCORE>
-42.8526

>  <SCORE.INTER>
-17.9771

>  <SCORE.INTER.CONST>
1

>  <SCORE.INTER.POLAR>
-3.54527

>  <SCORE.INTER.ROT>
2

>  <SCORE.INTER.SOLV>
22.4067

>  <SCORE.INTER.VDW>
-12.5694

>  <SCORE.INTER.norm>
-1.63428

>  <SCORE.INTRA>
-3.76307

>  <SCORE.INTRA.DIHEDRAL>
-0.369132

>  <SCORE.INTRA.DIHEDRAL.0>
1.64509

>  <SCORE.INTRA.POLAR>
-0.177328

>  <SCORE.INTRA.POLAR.0>
0

>  <SCORE.INTRA.REPUL>
0

>  <SCORE.INTRA.REPUL.0>
0

>  <SCORE.INTRA.SOLV>
-6.00848

>  <SCORE.INTRA.SOLV.lig_0>
-46.0876

>  <SCORE.INTRA.VDW>
0.0286549

>  <SCORE.INTRA.VDW.0>
-0.00449069

>  <SCORE.INTRA.norm>
-0.342097

>  <SCORE.RESTR>
0

>  <SCORE.RESTR.CAVITY>
0

>  <SCORE.RESTR.norm>
0

>  <SCORE.SYSTEM>
-21.1125

>  <SCORE.SYSTEM.CONST>
0

>  <SCORE.SYSTEM.DIHEDRAL>
4.18999

>  <SCORE.SYSTEM.POLAR>
-3.06026

>  <SCORE.SYSTEM.SOLV>
0.200086

>  <SCORE.SYSTEM.VDW>
-5.33746

>  <SCORE.SYSTEM.norm>
-1.91932

>  <SCORE.heavy>
11

>  <SCORE.norm>
-3.89569

$$$$
P128031521
 OpenBabel12072022113D
libRbt.so/2013.1/901 2013/11/27
 11 11  0  0  0  0  0  0  0  0999 V2000
  -30.1475   17.8232  -17.3051 C   0  0  0  0  0  0  0  0  0  0  0  0
  -29.2638   16.7054  -17.1245 N   0  0  0  0  0  0  0  0  0  0  0  0
  -29.0744   16.1283  -15.8858 C   0  0  0  0  0  0  0  0  0  0  0  0
  -29.7601   16.3885  -14.9009 O   0  0  0  0  0  0  0  0  0  0  0  0
  -27.9687   15.0612  -15.8625 C   0  0  1  0  0  0  0  0  0  0  0  0
  -28.4627   13.7481  -16.4753 C   0  0  0  0  0  0  0  0  0  0  0  0
  -27.4790   13.4294  -17.5921 C   0  0  0  0  0  0  0  0  0  0  0  0
  -26.2416   14.2228  -17.2222 C   0  0  0  0  0  0  0  0  0  0  0  0
  -26.8226   15.4712  -16.7252 N   0  0  0  0  0  0  0  0  0  0  0  0
  -25.8478   16.2755  -15.9957 C   0  0  0  0  0  0  0  0  0  0  0  0
  -28.4938   16.5499  -17.7723 H   0  0  0  0  0  0  0  0  0  0  0  0
  1  2  1  0  0  0  0
  2  3  1  0  0  0  0
  2 11  1  0  0  0  0
  3  4  2  0  0  0  0
  5  3  1  6  0  0  0
  5  6  1  0  0  0  0
  5  9  1  0  0  0  0
  6  7  1  0  0  0  0
  7  8  1  0  0  0  0
  8  9  1  0  0  0  0
  9 10  1  0  0  0  0
M  END
>  <CHROM.0>
-56.88953270,-64.73098166,-70.79763672,-43.30923181,-59.18467535,-176.35345192
-168.22126538,-59.43575838,-168.41332942

>  <CHROM.1>
10.28899378,-77.23337523,-28.11825103,15.56078223,-16.51088203,-2.40640579
-0.00402253,-2.94590151

>  <Name>
P128031521

>  <RI>
0

>  <Rbt.Current_Directory>
/home/fstefaniak/projects/zuza/docking/adenine/4TZX

>  <Rbt.Executable>
rbdock ($Id: //depot/dev/client3/rdock/2013.1/src/exe/rbdock.cxx#4 $)

>  <Rbt.Library>
libRbt.so (2013.1, Build901 2013/11/27)

>  <Rbt.Parameter_File>
/home/fstefaniak/progs/rDock//data/scripts/dock_solv.prm

>  <Rbt.Receptor>
4tzx.prm

>  <SCORE>
-41.6921

>  <SCORE.INTER>
-21.3449

>  <SCORE.INTER.CONST>
1

>  <SCORE.INTER.POLAR>
-2.09684

>  <SCORE.INTER.ROT>
2

>  <SCORE.INTER.SOLV>
9.67945

>  <SCORE.INTER.VDW>
-15.4003

>  <SCORE.INTER.norm>
-2.13449

>  <SCORE.INTRA>
-0.025418

>  <SCORE.INTRA.DIHEDRAL>
-0.344118

>  <SCORE.INTRA.DIHEDRAL.0>
2.0346

>  <SCORE.INTRA.POLAR>
0.0657414

>  <SCORE.INTRA.POLAR.0>
-0.235362

>  <SCORE.INTRA.REPUL>
0

>  <SCORE.INTRA.REPUL.0>
0

>  <SCORE.INTRA.SOLV>
-0.0201367

>  <SCORE.INTRA.SOLV.lig_0>
-10.5026

>  <SCORE.INTRA.VDW>
-0.0668116

>  <SCORE.INTRA.VDW.0>
-0.213033

>  <SCORE.INTRA.norm>
-0.0025418

>  <SCORE.RESTR>
0

>  <SCORE.RESTR.CAVITY>
0

>  <SCORE.RESTR.norm>
0

>  <SCORE.SYSTEM>
-20.3217

>  <SCORE.SYSTEM.CONST>
0

>  <SCORE.SYSTEM.DIHEDRAL>
5.31595

>  <SCORE.SYSTEM.POLAR>
-3.05598

>  <SCORE.SYSTEM.SOLV>
0.0460693

>  <SCORE.SYSTEM.VDW>
-5.14858

>  <SCORE.SYSTEM.norm>
-2.03217

>  <SCORE.heavy>
10

>  <SCORE.norm>
-4.16921

$$$$
P128031521
 OpenBabel12072022113D
libRbt.so/2013.1/901 2013/11/27
 11 11  0  0  0  0  0  0  0  0999 V2000
  -31.0316   17.2020  -15.0113 C   0  0  0  0  0  0  0  0  0  0  0  0
  -30.2362   16.0430  -15.3066 N   0  0  0  0  0  0  0  0  0  0  0  0
  -29.2131   16.0867  -16.2311 C   0  0  0  0  0  0  0  0  0  0  0  0
  -29.1568   16.9029  -17.1470 O   0  0  0  0  0  0  0  0  0  0  0  0
  -28.0965   15.0643  -15.9677 C   0  0  1  0  0  0  0  0  0  0  0  0
  -28.5064   13.6702  -16.4498 C   0  0  0  0  0  0  0  0  0  0  0  0
  -27.4145   13.2420  -17.4198 C   0  0  0  0  0  0  0  0  0  0  0  0
  -26.2323   14.1120  -17.0414 C   0  0  0  0  0  0  0  0  0  0  0  0
  -26.8800   15.3955  -16.7655 N   0  0  0  0  0  0  0  0  0  0  0  0
  -25.9940   16.3140  -16.0580 C   0  0  0  0  0  0  0  0  0  0  0  0
  -30.6131   15.1095  -15.1547 H   0  0  0  0  0  0  0  0  0  0  0  0
  1  2  1  0  0  0  0
  2  3  1  0  0  0  0
  2 11  1  0  0  0  0
  3  4  2  0  0  0  0
  5  3  1  6  0  0  0
  5  6  1  0  0  0  0
  5  9  1  0  0  0  0
  6  7  1  0  0  0  0
  7  8  1  0  0  0  0
  8  9  1  0  0  0  0
  9 10  1  0  0  0  0
M  END
>  <CHROM.0>
-61.92839316,166.15154463,-62.84887511,-42.52223952,-56.04557551,-66.78520696
-67.05017619,-173.69689470,-169.58297617

>  <CHROM.1>
-24.04195333,79.19059441,-28.29617729,15.43381142,-16.33546047,2.52835534
0.21658014,0.21509359

>  <Name>
P128031521

>  <RI>
0

>  <Rbt.Current_Directory>
/home/fstefaniak/projects/zuza/docking/adenine/4TZX

>  <Rbt.Executable>
rbdock ($Id: //depot/dev/client3/rdock/2013.1/src/exe/rbdock.cxx#4 $)

>  <Rbt.Library>
libRbt.so (2013.1, Build901 2013/11/27)

>  <Rbt.Parameter_File>
/home/fstefaniak/progs/rDock//data/scripts/dock_solv.prm

>  <Rbt.Receptor>
4tzx.prm

>  <SCORE>
-40.5519

>  <SCORE.INTER>
-20.561

>  <SCORE.INTER.CONST>
1

>  <SCORE.INTER.POLAR>
-1.96556

>  <SCORE.INTER.ROT>
2

>  <SCORE.INTER.SOLV>
10.3935

>  <SCORE.INTER.VDW>
-15.5533

>  <SCORE.INTER.norm>
-2.0561

>  <SCORE.INTRA>
0.175083

>  <SCORE.INTRA.DIHEDRAL>
-0.456876

>  <SCORE.INTRA.DIHEDRAL.0>
2.0346

>  <SCORE.INTRA.POLAR>
0.235362

>  <SCORE.INTRA.POLAR.0>
-0.235362

>  <SCORE.INTRA.REPUL>
0

>  <SCORE.INTRA.REPUL.0>
0

>  <SCORE.INTRA.SOLV>
-0.655369

>  <SCORE.INTRA.SOLV.lig_0>
-10.5026

>  <SCORE.INTRA.VDW>
-0.0690235

>  <SCORE.INTRA.VDW.0>
-0.213033

>  <SCORE.INTRA.norm>
0.0175083

>  <SCORE.RESTR>
0

>  <SCORE.RESTR.CAVITY>
0

>  <SCORE.RESTR.norm>
0

>  <SCORE.SYSTEM>
-20.166

>  <SCORE.SYSTEM.CONST>
0

>  <SCORE.SYSTEM.DIHEDRAL>
5.59191

>  <SCORE.SYSTEM.POLAR>
-3.04304

>  <SCORE.SYSTEM.SOLV>
0.0355156

>  <SCORE.SYSTEM.VDW>
-5.17632

>  <SCORE.SYSTEM.norm>
-2.0166

>  <SCORE.heavy>
10

>  <SCORE.norm>
-4.05519

$$$$
P128031521
 OpenBabel12072022113D
libRbt.so/2013.1/901 2013/11/27
 11 11  0  0  0  0  0  0  0  0999 V2000
  -30.1080   17.7584  -17.3156 C   0  0  0  0  0  0  0  0  0  0  0  0
  -29.2403   16.6275  -17.1393 N   0  0  0  0  0  0  0  0  0  0  0  0
  -29.1079   16.0035  -15.9160 C   0  0  0  0  0  0  0  0  0  0  0  0
  -29.8674   16.1917  -14.9695 O   0  0  0  0  0  0  0  0  0  0  0  0
  -27.9613   14.9817  -15.8630 C   0  0  1  0  0  0  0  0  0  0  0  0
  -28.4027   13.6339  -16.4393 C   0  0  0  0  0  0  0  0  0  0  0  0
  -27.4059   13.3232  -17.5468 C   0  0  0  0  0  0  0  0  0  0  0  0
  -26.2010   14.1744  -17.1987 C   0  0  0  0  0  0  0  0  0  0  0  0
  -26.8311   15.4124  -16.7365 N   0  0  0  0  0  0  0  0  0  0  0  0
  -25.8895   16.2741  -16.0294 C   0  0  0  0  0  0  0  0  0  0  0  0
  -28.4443   16.4898  -17.7590 H   0  0  0  0  0  0  0  0  0  0  0  0
  1  2  1  0  0  0  0
  2  3  1  0  0  0  0
  2 11  1  0  0  0  0
  3  4  2  0  0  0  0
  5  3  1  6  0  0  0
  5  6  1  0  0  0  0
  5  9  1  0  0  0  0
  6  7  1  0  0  0  0
  7  8  1  0  0  0  0
  8  9  1  0  0  0  0
  9 10  1  0  0  0  0
M  END
>  <CHROM.0>
56.94643532,-61.13095706,-65.23237152,-42.61999471,-54.68745327,-63.93340643
-66.41513008,-56.75811607,-169.18517355

>  <CHROM.1>
13.43573350,-82.79122895,-28.11373632,15.47342031,-16.51800683,-2.42180984
-0.10583305,-3.07508148

>  <Name>
P128031521

>  <RI>
0

>  <Rbt.Current_Directory>
/home/fstefaniak/projects/zuza/docking/adenine/4TZX

>  <Rbt.Executable>
rbdock ($Id: //depot/dev/client3/rdock/2013.1/src/exe/rbdock.cxx#4 $)

>  <Rbt.Library>
libRbt.so (2013.1, Build901 2013/11/27)

>  <Rbt.Parameter_File>
/home/fstefaniak/progs/rDock//data/scripts/dock_solv.prm

>  <Rbt.Receptor>
4tzx.prm

>  <SCORE>
-39.0022

>  <SCORE.INTER>
-21.3427

>  <SCORE.INTER.CONST>
1

>  <SCORE.INTER.POLAR>
-2.09167

>  <SCORE.INTER.ROT>
2

>  <SCORE.INTER.SOLV>
9.73002

>  <SCORE.INTER.VDW>
-15.4329

>  <SCORE.INTER.norm>
-2.13427

>  <SCORE.INTRA>
-0.0640774

>  <SCORE.INTRA.DIHEDRAL>
-0.128845

>  <SCORE.INTRA.DIHEDRAL.0>
2.0346

>  <SCORE.INTRA.POLAR>
0.0160818

>  <SCORE.INTRA.POLAR.0>
-0.235362

>  <SCORE.INTRA.REPUL>
0

>  <SCORE.INTRA.REPUL.0>
0

>  <SCORE.INTRA.SOLV>
-0.00421549

>  <SCORE.INTRA.SOLV.lig_0>
-10.5026

>  <SCORE.INTRA.VDW>
-0.0522255

>  <SCORE.INTRA.VDW.0>
-0.213033

>  <SCORE.INTRA.norm>
-0.00640774

>  <SCORE.RESTR>
0

>  <SCORE.RESTR.CAVITY>
0

>  <SCORE.RESTR.norm>
0

>  <SCORE.SYSTEM>
-17.5954

>  <SCORE.SYSTEM.CONST>
0

>  <SCORE.SYSTEM.DIHEDRAL>
4.59632

>  <SCORE.SYSTEM.POLAR>
-2.49209

>  <SCORE.SYSTEM.SOLV>
0.203434

>  <SCORE.SYSTEM.VDW>
-5.02321

>  <SCORE.SYSTEM.norm>
-1.75954

>  <SCORE.heavy>
10

>  <SCORE.norm>
-3.90022

$$$$
P128795404
 OpenBabel12072022113D
libRbt.so/2013.1/901 2013/11/27
 14 14  0  0  0  0  0  0  0  0999 V2000
  -27.0707   11.9203  -14.8545 C   0  0  0  0  0  0  0  0  0  0  0  0
  -26.3953   13.1112  -15.3430 N   0  0  0  0  0  0  0  0  0  0  0  0
  -24.9491   13.1276  -15.1645 C   0  0  0  0  0  0  0  0  0  0  0  0
  -27.0681   13.8748  -16.2855 C   0  0  0  0  0  0  0  0  0  0  0  0
  -26.7646   13.9034  -17.4743 O   0  0  0  0  0  0  0  0  0  0  0  0
  -28.1098   14.6147  -15.7853 N   0  0  0  0  0  0  0  0  0  0  0  0
  -28.8320   15.5397  -16.6540 C   0  0  0  0  0  0  0  0  0  0  0  0
  -29.7178   16.5235  -15.8664 C   0  0  1  0  0  0  0  0  0  0  0  0
  -30.5960   17.3239  -16.7836 C   0  0  0  0  0  0  0  0  0  0  0  0
  -30.4449   18.8227  -16.8598 C   0  0  0  0  0  0  0  0  0  0  0  0
  -30.0296   17.9672  -18.0246 C   0  0  0  0  0  0  0  0  0  0  0  0
  -30.5704   15.7783  -14.9917 O   0  0  0  0  0  0  0  0  0  0  0  0
  -28.6912   14.0927  -15.1471 H   0  0  0  0  0  0  0  0  0  0  0  0
  -31.0302   15.1473  -15.5748 H   0  0  0  0  0  0  0  0  0  0  0  0
  1  2  1  0  0  0  0
  2  3  1  0  0  0  0
  2  4  1  0  0  0  0
  4  5  2  0  0  0  0
  4  6  1  0  0  0  0
  6  7  1  0  0  0  0
  6 13  1  0  0  0  0
  8  7  1  6  0  0  0
  8  9  1  0  0  0  0
  8 12  1  0  0  0  0
  9 10  1  0  0  0  0
  9 11  1  0  0  0  0
 10 11  1  0  0  0  0
 12 14  1  0  0  0  0
M  END
>  <CHROM.0>
56.74839867,40.90856627,-41.64066343,-43.84527502,-61.63897170,-53.09254336
-66.86324137,-175.05189121,-168.56533024

>  <CHROM.1>
-106.35312612,175.23867384,-165.81408288,-171.69556432,-117.20479484,-54.67191651
-28.37003964,15.15803715,-16.14920093,0.71893737,-0.54107950,2.34752624

>  <Name>
P128795404

>  <RI>
0

>  <Rbt.Current_Directory>
/home/fstefaniak/projects/zuza/docking/adenine/4TZX

>  <Rbt.Executable>
rbdock ($Id: //depot/dev/client3/rdock/2013.1/src/exe/rbdock.cxx#4 $)

>  <Rbt.Library>
libRbt.so (2013.1, Build901 2013/11/27)

>  <Rbt.Parameter_File>
/home/fstefaniak/progs/rDock//data/scripts/dock_solv.prm

>  <Rbt.Receptor>
4tzx.prm

>  <SCORE>
-49.6663

>  <SCORE.INTER>
-32.3962

>  <SCORE.INTER.CONST>
1

>  <SCORE.INTER.POLAR>
-4.97686

>  <SCORE.INTER.ROT>
5

>  <SCORE.INTER.SOLV>
11.8379

>  <SCORE.INTER.VDW>
-15.8872

>  <SCORE.INTER.norm>
-2.69969

>  <SCORE.INTRA>
-1.42497

>  <SCORE.INTRA.DIHEDRAL>
-1.53348

>  <SCORE.INTRA.DIHEDRAL.0>
5.41875

>  <SCORE.INTRA.POLAR>
0.086074

>  <SCORE.INTRA.POLAR.0>
-0.086074

>  <SCORE.INTRA.REPUL>
0

>  <SCORE.INTRA.REPUL.0>
0

>  <SCORE.INTRA.SOLV>
-0.503142

>  <SCORE.INTRA.SOLV.lig_0>
-15.3866

>  <SCORE.INTRA.VDW>
-0.699308

>  <SCORE.INTRA.VDW.0>
1.71162

>  <SCORE.INTRA.norm>
-0.118747

>  <SCORE.RESTR>
0

>  <SCORE.RESTR.CAVITY>
0

>  <SCORE.RESTR.norm>
0

>  <SCORE.SYSTEM>
-15.8451

>  <SCORE.SYSTEM.CONST>
0

>  <SCORE.SYSTEM.DIHEDRAL>
7.5209

>  <SCORE.SYSTEM.POLAR>
-2.7636

>  <SCORE.SYSTEM.SOLV>
0.223601

>  <SCORE.SYSTEM.VDW>
-3.93288

>  <SCORE.SYSTEM.norm>
-1.32042

>  <SCORE.heavy>
12

>  <SCORE.norm>
-4.13886

$$$$
P128795404
 OpenBabel12072022113D
libRbt.so/2013.1/901 2013/11/27
 14 14  0  0  0  0  0  0  0  0999 V2000
  -27.6584   13.6297  -16.4372 C   0  0  0  0  0  0  0  0  0  0  0  0
  -27.0903   14.9531  -16.2399 N   0  0  0  0  0  0  0  0  0  0  0  0
  -25.7698   15.1599  -16.8206 C   0  0  0  0  0  0  0  0  0  0  0  0
  -27.9740   15.9794  -15.9402 C   0  0  0  0  0  0  0  0  0  0  0  0
  -27.7263   16.8713  -15.1343 O   0  0  0  0  0  0  0  0  0  0  0  0
  -29.1681   15.9221  -16.6138 N   0  0  0  0  0  0  0  0  0  0  0  0
  -30.3917   16.3945  -15.9726 C   0  0  0  0  0  0  0  0  0  0  0  0
  -30.5503   17.9246  -16.0524 C   0  0  1  0  0  0  0  0  0  0  0  0
  -31.2295   18.3388  -17.3252 C   0  0  0  0  0  0  0  0  0  0  0  0
  -30.8738   19.6493  -17.9818 C   0  0  0  0  0  0  0  0  0  0  0  0
  -30.4752   18.3528  -18.6311 C   0  0  0  0  0  0  0  0  0  0  0  0
  -31.3686   18.3613  -14.9629 O   0  0  0  0  0  0  0  0  0  0  0  0
  -29.0807   16.1653  -17.5890 H   0  0  0  0  0  0  0  0  0  0  0  0
  -30.8479   18.1545  -14.1656 H   0  0  0  0  0  0  0  0  0  0  0  0
  1  2  1  0  0  0  0
  2  3  1  0  0  0  0
  2  4  1  0  0  0  0
  4  5  2  0  0  0  0
  4  6  1  0  0  0  0
  6  7  1  0  0  0  0
  6 13  1  0  0  0  0
  8  7  1  6  0  0  0
  8  9  1  0  0  0  0
  8 12  1  0  0  0  0
  9 10  1  0  0  0  0
  9 11  1  0  0  0  0
 10 11  1  0  0  0  0
 12 14  1  0  0  0  0
M  END
>  <CHROM.0>
-55.69177327,-63.43057292,-64.38783548,-43.18267385,-62.37813750,-172.69394660
-68.01508693,-57.62198735,-168.29659932

>  <CHROM.1>
141.19782951,146.93360473,81.43653759,87.05071918,-147.37990538,64.81569299
-29.17252735,16.78395686,-16.47445673,-0.34655351,0.68691114,-1.22831807

>  <Name>
P128795404

>  <RI>
0

>  <Rbt.Current_Directory>
/home/fstefaniak/projects/zuza/docking/adenine/4TZX

>  <Rbt.Executable>
rbdock ($Id: //depot/dev/client3/rdock/2013.1/src/exe/rbdock.cxx#4 $)

>  <Rbt.Library>
libRbt.so (2013.1, Build901 2013/11/27)

>  <Rbt.Parameter_File>
/home/fstefaniak/progs/rDock//data/scripts/dock_solv.prm

>  <Rbt.Receptor>
4tzx.prm

>  <SCORE>
-47.5428

>  <SCORE.INTER>
-25.628

>  <SCORE.INTER.CONST>
1

>  <SCORE.INTER.POLAR>
-2.16413

>  <SCORE.INTER.ROT>
5

>  <SCORE.INTER.SOLV>
12.5555

>  <SCORE.INTER.VDW>
-20.9901

>  <SCORE.INTER.norm>
-2.13566

>  <SCORE.INTRA>
-1.05929

>  <SCORE.INTRA.DIHEDRAL>
1.11535

>  <SCORE.INTRA.DIHEDRAL.0>
5.41875

>  <SCORE.INTRA.POLAR>
0.086074

>  <SCORE.INTRA.POLAR.0>
-0.086074

>  <SCORE.INTRA.REPUL>
0

>  <SCORE.INTRA.REPUL.0>
0

>  <SCORE.INTRA.SOLV>
-0.287553

>  <SCORE.INTRA.SOLV.lig_0>
-15.3866

>  <SCORE.INTRA.VDW>
-1.76584

>  <SCORE.INTRA.VDW.0>
1.71162

>  <SCORE.INTRA.norm>
-0.0882742

>  <SCORE.RESTR>
0

>  <SCORE.RESTR.CAVITY>
0

>  <SCORE.RESTR.norm>
0

>  <SCORE.SYSTEM>
-20.8555

>  <SCORE.SYSTEM.CONST>
0

>  <SCORE.SYSTEM.DIHEDRAL>
4.80655

>  <SCORE.SYSTEM.POLAR>
-3.08545

>  <SCORE.SYSTEM.SOLV>
0.0721927

>  <SCORE.SYSTEM.VDW>
-5.24511

>  <SCORE.SYSTEM.norm>
-1.73796

>  <SCORE.heavy>
12

>  <SCORE.norm>
-3.9619

$$$$
P128795404
 OpenBabel12072022113D
libRbt.so/2013.1/901 2013/11/27
 14 14  0  0  0  0  0  0  0  0999 V2000
  -31.2016   17.5267  -15.4840 C   0  0  0  0  0  0  0  0  0  0  0  0
  -30.0658   17.3558  -16.3750 N   0  0  0  0  0  0  0  0  0  0  0  0
  -30.1573   18.0607  -17.6472 C   0  0  0  0  0  0  0  0  0  0  0  0
  -28.8716   16.9450  -15.8013 C   0  0  0  0  0  0  0  0  0  0  0  0
  -28.4602   17.3629  -14.7232 O   0  0  0  0  0  0  0  0  0  0  0  0
  -28.1666   16.0285  -16.5402 N   0  0  0  0  0  0  0  0  0  0  0  0
  -28.0245   14.6571  -16.0599 C   0  0  0  0  0  0  0  0  0  0  0  0
  -26.7049   14.0041  -16.5126 C   0  0  1  0  0  0  0  0  0  0  0  0
  -26.3814   12.7937  -15.6860 C   0  0  0  0  0  0  0  0  0  0  0  0
  -25.2893   11.8489  -16.1215 C   0  0  0  0  0  0  0  0  0  0  0  0
  -25.0918   12.7148  -14.9081 C   0  0  0  0  0  0  0  0  0  0  0  0
  -26.8437   13.5764  -17.8710 O   0  0  0  0  0  0  0  0  0  0  0  0
  -28.3304   16.1144  -17.5320 H   0  0  0  0  0  0  0  0  0  0  0  0
  -26.8605   14.4019  -18.3885 H   0  0  0  0  0  0  0  0  0  0  0  0
  1  2  1  0  0  0  0
  2  3  1  0  0  0  0
  2  4  1  0  0  0  0
  4  5  2  0  0  0  0
  4  6  1  0  0  0  0
  6  7  1  0  0  0  0
  6 13  1  0  0  0  0
  8  7  1  1  0  0  0
  8  9  1  0  0  0  0
  8 12  1  0  0  0  0
  9 10  1  0  0  0  0
  9 11  1  0  0  0  0
 10 11  1  0  0  0  0
 12 14  1  0  0  0  0
M  END
>  <CHROM.0>
-60.29186221,-83.75386919,-63.65439901,-44.64538616,59.06718162,-58.41756147
-67.12643861,-62.11609785,-169.19398796

>  <CHROM.1>
-40.34012929,-111.56997700,-149.55347285,162.41510177,167.98186833,70.92866021
-27.96487678,15.27617769,-16.17834375,-2.95960456,0.84043154,-1.83999720

>  <Name>
P128795404

>  <RI>
0

>  <Rbt.Current_Directory>
/home/fstefaniak/projects/zuza/docking/adenine/4TZX

>  <Rbt.Executable>
rbdock ($Id: //depot/dev/client3/rdock/2013.1/src/exe/rbdock.cxx#4 $)

>  <Rbt.Library>
libRbt.so (2013.1, Build901 2013/11/27)

>  <Rbt.Parameter_File>
/home/fstefaniak/progs/rDock//data/scripts/dock_solv.prm

>  <Rbt.Receptor>
4tzx.prm

>  <SCORE>
-46.6443

>  <SCORE.INTER>
-26.0616

>  <SCORE.INTER.CONST>
1

>  <SCORE.INTER.POLAR>
-3.3482

>  <SCORE.INTER.ROT>
5

>  <SCORE.INTER.SOLV>
10.4031

>  <SCORE.INTER.VDW>
-16.6147

>  <SCORE.INTER.norm>
-2.1718

>  <SCORE.INTRA>
-1.2515

>  <SCORE.INTRA.DIHEDRAL>
1.41725

>  <SCORE.INTRA.DIHEDRAL.0>
5.41875

>  <SCORE.INTRA.POLAR>
0.086074

>  <SCORE.INTRA.POLAR.0>
-0.086074

>  <SCORE.INTRA.REPUL>
0

>  <SCORE.INTRA.REPUL.0>
0

>  <SCORE.INTRA.SOLV>
-0.480436

>  <SCORE.INTRA.SOLV.lig_0>
-15.3866

>  <SCORE.INTRA.VDW>
-2.01256

>  <SCORE.INTRA.VDW.0>
1.71162

>  <SCORE.INTRA.norm>
-0.104292

>  <SCORE.RESTR>
0

>  <SCORE.RESTR.CAVITY>
0

>  <SCORE.RESTR.norm>
0

>  <SCORE.SYSTEM>
-19.3312

>  <SCORE.SYSTEM.CONST>
0

>  <SCORE.SYSTEM.DIHEDRAL>
6.42846

>  <SCORE.SYSTEM.POLAR>
-3.00738

>  <SCORE.SYSTEM.SOLV>
-0.0502905

>  <SCORE.SYSTEM.VDW>
-4.98893

>  <SCORE.SYSTEM.norm>
-1.61093

>  <SCORE.heavy>
12

>  <SCORE.norm>
-3.88702

$$$$
P128856802
 OpenBabel12072022113D
libRbt.so/2013.1/901 2013/11/27
 15 16  0  0  0  0  0  0  0  0999 V2000
  -23.9034   11.9755  -15.9755 C   0  0  0  0  0  0  0  0  0  0  0  0
  -24.0430   11.5727  -14.7027 C   0  0  0  0  0  0  0  0  0  0  0  0
  -25.2279   12.0941  -14.2354 N   0  0  0  0  0  0  0  0  0  0  0  0
  -25.5730   11.9706  -13.2985 H   0  0  0  0  0  0  0  0  0  0  0  0
  -25.8692   12.8548  -15.2041 C   0  0  0  0  0  0  0  0  0  0  0  0
  -26.9819   13.4768  -15.0496 N   0  0  0  0  0  0  0  0  0  0  0  0
  -27.4644   14.1836  -16.1146 C   0  0  0  0  0  0  0  0  0  0  0  0
  -26.9375   14.2944  -17.2180 O   0  0  0  0  0  0  0  0  0  0  0  0
  -28.6549   14.7726  -15.7854 N   0  0  0  0  0  0  0  0  0  0  0  0
  -29.4199   15.5825  -16.6697 C   0  0  0  0  0  0  0  0  0  0  0  0
  -30.3691   16.6192  -16.1335 C   0  0  0  0  0  0  0  0  0  0  0  0
  -29.1083   17.0450  -16.8261 C   0  0  0  0  0  0  0  0  0  0  0  0
  -25.0021   12.7405  -16.2809 N   0  0  0  0  0  0  0  0  0  0  0  0
  -25.1675   13.2055  -17.1654 H   0  0  0  0  0  0  0  0  0  0  0  0
  -28.9687   14.5864  -14.8444 H   0  0  0  0  0  0  0  0  0  0  0  0
  1  2  2  0  0  0  0
  1 13  1  0  0  0  0
  2  3  1  0  0  0  0
  3  4  1  0  0  0  0
  3  5  1  0  0  0  0
  5  6  2  0  0  0  0
  5 13  1  0  0  0  0
  6  7  1  0  0  0  0
  7  8  2  0  0  0  0
  7  9  1  0  0  0  0
  9 10  1  0  0  0  0
  9 15  1  0  0  0  0
 10 11  1  0  0  0  0
 10 12  1  0  0  0  0
 11 12  1  0  0  0  0
 13 14  1  0  0  0  0
M  END
>  <CHROM.0>
-56.30677283,45.86794756,61.43283392,-42.94284772,-55.87830838,-53.84120664
55.82394757,-61.73980887,-169.55427879

>  <CHROM.1>
-0.35099460,-154.96682022,-26.93585835,13.95281382,-15.85836088,-0.48039699
0.56314615,-1.09530183

>  <Name>
P128856802

>  <RI>
0

>  <Rbt.Current_Directory>
/home/fstefaniak/projects/zuza/docking/adenine/4TZX

>  <Rbt.Executable>
rbdock ($Id: //depot/dev/client3/rdock/2013.1/src/exe/rbdock.cxx#4 $)

>  <Rbt.Library>
libRbt.so (2013.1, Build901 2013/11/27)

>  <Rbt.Parameter_File>
/home/fstefaniak/progs/rDock//data/scripts/dock_solv.prm

>  <Rbt.Receptor>
4tzx.prm

>  <SCORE>
-44.8835

>  <SCORE.INTER>
-26.8195

>  <SCORE.INTER.CONST>
1

>  <SCORE.INTER.POLAR>
-3.90084

>  <SCORE.INTER.ROT>
2

>  <SCORE.INTER.SOLV>
10.0078

>  <SCORE.INTER.VDW>
-13.1462

>  <SCORE.INTER.norm>
-2.23496

>  <SCORE.INTRA>
-0.0132241

>  <SCORE.INTRA.DIHEDRAL>
-0.0132677

>  <SCORE.INTRA.DIHEDRAL.0>
1.21774

>  <SCORE.INTRA.POLAR>
-3.34721e-05

>  <SCORE.INTRA.POLAR.0>
-0.0396864

>  <SCORE.INTRA.REPUL>
0

>  <SCORE.INTRA.REPUL.0>
0

>  <SCORE.INTRA.SOLV>
0.0551459

>  <SCORE.INTRA.SOLV.lig_0>
-23.5423

>  <SCORE.INTRA.VDW>
-0.0340494

>  <SCORE.INTRA.VDW.0>
-0.39223

>  <SCORE.INTRA.norm>
-0.00110201

>  <SCORE.RESTR>
0.0137564

>  <SCORE.RESTR.CAVITY>
0.0137564

>  <SCORE.RESTR.norm>
0.00114636

>  <SCORE.SYSTEM>
-18.0645

>  <SCORE.SYSTEM.CONST>
0

>  <SCORE.SYSTEM.DIHEDRAL>
5.24664

>  <SCORE.SYSTEM.POLAR>
-3.143

>  <SCORE.SYSTEM.SOLV>
0.205869

>  <SCORE.SYSTEM.VDW>
-3.38385

>  <SCORE.SYSTEM.norm>
-1.50538

>  <SCORE.heavy>
12

>  <SCORE.norm>
-3.74029

$$$$
P128856802
 OpenBabel12072022113D
libRbt.so/2013.1/901 2013/11/27
 15 16  0  0  0  0  0  0  0  0999 V2000
  -23.9108   11.9588  -15.9703 C   0  0  0  0  0  0  0  0  0  0  0  0
  -24.0647   11.5404  -14.7041 C   0  0  0  0  0  0  0  0  0  0  0  0
  -25.2545   12.0565  -14.2437 N   0  0  0  0  0  0  0  0  0  0  0  0
  -25.6100   11.9216  -13.3122 H   0  0  0  0  0  0  0  0  0  0  0  0
  -25.8850   12.8292  -15.2101 C   0  0  0  0  0  0  0  0  0  0  0  0
  -26.9992   13.4496  -15.0603 N   0  0  0  0  0  0  0  0  0  0  0  0
  -27.4696   14.1696  -16.1219 C   0  0  0  0  0  0  0  0  0  0  0  0
  -26.9282   14.2977  -17.2163 O   0  0  0  0  0  0  0  0  0  0  0  0
  -28.6667   14.7498  -15.8008 N   0  0  0  0  0  0  0  0  0  0  0  0
  -29.4225   15.5693  -16.6841 C   0  0  0  0  0  0  0  0  0  0  0  0
  -30.3483   16.6266  -16.1470 C   0  0  0  0  0  0  0  0  0  0  0  0
  -29.0845   17.0248  -16.8506 C   0  0  0  0  0  0  0  0  0  0  0  0
  -25.0059   12.7278  -16.2785 N   0  0  0  0  0  0  0  0  0  0  0  0
  -25.1614   13.2037  -17.1590 H   0  0  0  0  0  0  0  0  0  0  0  0
  -28.9926   14.5494  -14.8669 H   0  0  0  0  0  0  0  0  0  0  0  0
  1  2  2  0  0  0  0
  1 13  1  0  0  0  0
  2  3  1  0  0  0  0
  3  4  1  0  0  0  0
  3  5  1  0  0  0  0
  5  6  2  0  0  0  0
  5 13  1  0  0  0  0
  6  7  1  0  0  0  0
  7  8  2  0  0  0  0
  7  9  1  0  0  0  0
  9 10  1  0  0  0  0
  9 15  1  0  0  0  0
 10 11  1  0  0  0  0
 10 12  1  0  0  0  0
 11 12  1  0  0  0  0
 13 14  1  0  0  0  0
M  END
>  <CHROM.0>
-59.25007233,-62.58809713,-67.91737502,-43.40348501,-56.35371297,-60.47663640
-67.87169980,-175.99196860,-168.65176194

>  <CHROM.1>
-0.63552238,-152.89604686,-26.94053789,13.93533272,-15.86607968,-0.49612685
0.55718057,-1.07411632

>  <Name>
P128856802

>  <RI>
0

>  <Rbt.Current_Directory>
/home/fstefaniak/projects/zuza/docking/adenine/4TZX

>  <Rbt.Executable>
rbdock ($Id: //depot/dev/client3/rdock/2013.1/src/exe/rbdock.cxx#4 $)

>  <Rbt.Library>
libRbt.so (2013.1, Build901 2013/11/27)

>  <Rbt.Parameter_File>
/home/fstefaniak/progs/rDock//data/scripts/dock_solv.prm

>  <Rbt.Receptor>
4tzx.prm

>  <SCORE>
-42.3114

>  <SCORE.INTER>
-21.1875

>  <SCORE.INTER.CONST>
1

>  <SCORE.INTER.POLAR>
-2.81466

>  <SCORE.INTER.ROT>
2

>  <SCORE.INTER.SOLV>
9.86162

>  <SCORE.INTER.VDW>
-12.9633

>  <SCORE.INTER.norm>
-1.76563

>  <SCORE.INTRA>
-0.00930408

>  <SCORE.INTRA.DIHEDRAL>
-0.00859923

>  <SCORE.INTRA.DIHEDRAL.0>
1.21774

>  <SCORE.INTRA.POLAR>
-3.38879e-05

>  <SCORE.INTRA.POLAR.0>
-0.0396864

>  <SCORE.INTRA.REPUL>
0

>  <SCORE.INTRA.REPUL.0>
0

>  <SCORE.INTRA.SOLV>
0.061247

>  <SCORE.INTRA.SOLV.lig_0>
-23.5423

>  <SCORE.INTRA.VDW>
-0.0355127

>  <SCORE.INTRA.VDW.0>
-0.39223

>  <SCORE.INTRA.norm>
-0.00077534

>  <SCORE.RESTR>
0.0210597

>  <SCORE.RESTR.CAVITY>
0.0210597

>  <SCORE.RESTR.norm>
0.00175497

>  <SCORE.SYSTEM>
-21.1356

>  <SCORE.SYSTEM.CONST>
0

>  <SCORE.SYSTEM.DIHEDRAL>
4.66054

>  <SCORE.SYSTEM.POLAR>
-3.04976

>  <SCORE.SYSTEM.SOLV>
0.0514821

>  <SCORE.SYSTEM.VDW>
-5.49523

>  <SCORE.SYSTEM.norm>
-1.7613

>  <SCORE.heavy>
12

>  <SCORE.norm>
-3.52595

$$$$
P128856802
 OpenBabel12072022113D
libRbt.so/2013.1/901 2013/11/27
 15 16  0  0  0  0  0  0  0  0999 V2000
  -23.8694   12.0477  -15.9447 C   0  0  0  0  0  0  0  0  0  0  0  0
  -24.0059   11.6128  -14.6822 C   0  0  0  0  0  0  0  0  0  0  0  0
  -25.2104   12.0858  -14.2138 N   0  0  0  0  0  0  0  0  0  0  0  0
  -25.5587   11.9308  -13.2827 H   0  0  0  0  0  0  0  0  0  0  0  0
  -25.8684   12.8466  -15.1712 C   0  0  0  0  0  0  0  0  0  0  0  0
  -27.0017   13.4292  -15.0126 N   0  0  0  0  0  0  0  0  0  0  0  0
  -27.4983   14.1434  -16.0661 C   0  0  0  0  0  0  0  0  0  0  0  0
  -26.9777   14.2761  -17.1701 O   0  0  0  0  0  0  0  0  0  0  0  0
  -28.6954   14.7115  -15.7242 N   0  0  0  0  0  0  0  0  0  0  0  0
  -29.4752   15.5224  -16.5944 C   0  0  0  0  0  0  0  0  0  0  0  0
  -30.3588   16.6089  -16.0447 C   0  0  0  0  0  0  0  0  0  0  0  0
  -29.1205   16.9672  -16.8121 C   0  0  0  0  0  0  0  0  0  0  0  0
  -24.9897   12.7837  -16.2428 N   0  0  0  0  0  0  0  0  0  0  0  0
  -25.1631   13.2625  -17.1184 H   0  0  0  0  0  0  0  0  0  0  0  0
  -29.0026   14.5085  -14.7845 H   0  0  0  0  0  0  0  0  0  0  0  0
  1  2  2  0  0  0  0
  1 13  1  0  0  0  0
  2  3  1  0  0  0  0
  3  4  1  0  0  0  0
  3  5  1  0  0  0  0
  5  6  2  0  0  0  0
  5 13  1  0  0  0  0
  6  7  1  0  0  0  0
  7  8  2  0  0  0  0
  7  9  1  0  0  0  0
  9 10  1  0  0  0  0
  9 15  1  0  0  0  0
 10 11  1  0  0  0  0
 10 12  1  0  0  0  0
 11 12  1  0  0  0  0
 13 14  1  0  0  0  0
M  END
>  <CHROM.0>
-55.53400924,-62.13382788,-67.43034591,-43.55839781,-175.66630986,-64.74030171
-66.36307694,-61.20248550,-168.18158988

>  <CHROM.1>
0.99973593,-150.33517556,-26.94368682,13.93761904,-15.81521145,-0.47958528
0.54303097,-1.07912234

>  <Name>
P128856802

>  <RI>
0

>  <Rbt.Current_Directory>
/home/fstefaniak/projects/zuza/docking/adenine/4TZX

>  <Rbt.Executable>
rbdock ($Id: //depot/dev/client3/rdock/2013.1/src/exe/rbdock.cxx#4 $)

>  <Rbt.Library>
libRbt.so (2013.1, Build901 2013/11/27)

>  <Rbt.Parameter_File>
/home/fstefaniak/progs/rDock//data/scripts/dock_solv.prm

>  <Rbt.Receptor>
4tzx.prm

>  <SCORE>
-42.2332

>  <SCORE.INTER>
-20.9615

>  <SCORE.INTER.CONST>
1

>  <SCORE.INTER.POLAR>
-2.72142

>  <SCORE.INTER.ROT>
2

>  <SCORE.INTER.SOLV>
10.0664

>  <SCORE.INTER.VDW>
-13.1917

>  <SCORE.INTER.norm>
-1.74679

>  <SCORE.INTRA>
-0.00242746

>  <SCORE.INTRA.DIHEDRAL>
-0.00287363

>  <SCORE.INTRA.DIHEDRAL.0>
1.21774

>  <SCORE.INTRA.POLAR>
0.000255755

>  <SCORE.INTRA.POLAR.0>
-0.0396864

>  <SCORE.INTRA.REPUL>
0

>  <SCORE.INTRA.REPUL.0>
0

>  <SCORE.INTRA.SOLV>
0.0688729

>  <SCORE.INTRA.SOLV.lig_0>
-23.5423

>  <SCORE.INTRA.VDW>
-0.0362967

>  <SCORE.INTRA.VDW.0>
-0.39223

>  <SCORE.INTRA.norm>
-0.000202288

>  <SCORE.RESTR>
0.00511661

>  <SCORE.RESTR.CAVITY>
0.00511661

>  <SCORE.RESTR.norm>
0.000426384

>  <SCORE.SYSTEM>
-21.2744

>  <SCORE.SYSTEM.CONST>
0

>  <SCORE.SYSTEM.DIHEDRAL>
4.69409

>  <SCORE.SYSTEM.POLAR>
-3.07147

>  <SCORE.SYSTEM.SOLV>
-0.00407312

>  <SCORE.SYSTEM.VDW>
-5.508

>  <SCORE.SYSTEM.norm>
-1.77286

>  <SCORE.heavy>
12

>  <SCORE.norm>
-3.51943

$$$$
P128880369
 OpenBabel12072022113D
libRbt.so/2013.1/901 2013/11/27
 17 17  0  0  0  0  0  0  0  0999 V2000
  -23.4586   11.9998  -13.5644 C   0  0  0  0  0  0  0  0  0  0  0  0
  -24.9455   12.2011  -13.8638 C   0  0  2  0  0  0  0  0  0  0  0  0
  -25.6822   10.8586  -13.8366 C   0  0  0  0  0  0  0  0  0  0  0  0
  -27.1632   11.0685  -14.1119 C   0  0  0  0  0  0  0  0  0  0  0  0
  -27.4085   11.8967  -15.3740 C   0  0  0  0  0  0  0  0  0  0  0  0
  -26.6824   13.1787  -15.3406 N   0  0  0  0  0  0  0  0  0  0  0  0
  -25.2099   12.9678  -15.1900 C   0  0  2  0  0  0  0  0  0  0  0  0
  -24.5238   12.3225  -16.4083 C   0  0  0  0  0  0  0  0  0  0  0  0
  -27.0376   14.0637  -16.4942 C   0  0  1  0  0  0  0  0  0  0  0  0
  -28.5503   14.2685  -16.6667 C   0  0  0  0  0  0  0  0  0  0  0  0
  -26.4264   15.4669  -16.2994 C   0  0  0  0  0  0  0  0  0  0  0  0
  -26.8486   16.2754  -15.4734 O   0  0  0  0  0  0  0  0  0  0  0  0
  -25.3249   15.7125  -17.1164 N   0  0  0  0  0  0  0  0  0  0  0  0
  -24.5668   16.8900  -16.9275 N   0  0  0  0  0  0  0  0  0  0  0  0
  -25.3345   15.2623  -18.0342 H   0  0  0  0  0  0  0  0  0  0  0  0
  -25.2326   17.6667  -16.8633 H   0  0  0  0  0  0  0  0  0  0  0  0
  -24.0774   17.0768  -17.8118 H   0  0  0  0  0  0  0  0  0  0  0  0
  2  3  1  0  0  0  0
  2  7  1  0  0  0  0
  2  1  1  6  0  0  0
  3  4  1  0  0  0  0
  4  5  1  0  0  0  0
  5  6  1  0  0  0  0
  6  7  1  0  0  0  0
  6  9  1  0  0  0  0
  7  8  1  6  0  0  0
  9 10  1  1  0  0  0
  9 11  1  0  0  0  0
 11 12  2  0  0  0  0
 11 13  1  0  0  0  0
 13 14  1  0  0  0  0
 13 15  1  0  0  0  0
 14 16  1  0  0  0  0
 14 17  1  0  0  0  0
M  END
>  <CHROM.0>
-56.36767175,-179.03134480,-64.89785417,-43.61854958,-58.48451827,-63.28669005
-71.14507436,-56.98835778,-169.06417100

>  <CHROM.1>
51.89370025,-72.46477226,-172.21217299,-47.70589969,-25.97186914,13.56389168
-15.50485156,-1.46386691,-0.17701635,-0.48233371

>  <Name>
P128880369

>  <RI>
0

>  <Rbt.Current_Directory>
/home/fstefaniak/projects/zuza/docking/adenine/4TZX

>  <Rbt.Executable>
rbdock ($Id: //depot/dev/client3/rdock/2013.1/src/exe/rbdock.cxx#4 $)

>  <Rbt.Library>
libRbt.so (2013.1, Build901 2013/11/27)

>  <Rbt.Parameter_File>
/home/fstefaniak/progs/rDock//data/scripts/dock_solv.prm

>  <Rbt.Receptor>
4tzx.prm

>  <SCORE>
-48.4569

>  <SCORE.INTER>
-28.4025

>  <SCORE.INTER.CONST>
1

>  <SCORE.INTER.POLAR>
-3.34508

>  <SCORE.INTER.ROT>
4

>  <SCORE.INTER.SOLV>
12.6281

>  <SCORE.INTER.VDW>
-18.2607

>  <SCORE.INTER.norm>
-2.02875

>  <SCORE.INTRA>
0.921734

>  <SCORE.INTRA.DIHEDRAL>
1.22538

>  <SCORE.INTRA.DIHEDRAL.0>
2.56235

>  <SCORE.INTRA.POLAR>
0.0289466

>  <SCORE.INTRA.POLAR.0>
-0.0289466

>  <SCORE.INTRA.REPUL>
0

>  <SCORE.INTRA.REPUL.0>
0

>  <SCORE.INTRA.SOLV>
-0.531091

>  <SCORE.INTRA.SOLV.lig_0>
-14.3357

>  <SCORE.INTRA.VDW>
0.476172

>  <SCORE.INTRA.VDW.0>
0.386712

>  <SCORE.INTRA.norm>
0.0658382

>  <SCORE.RESTR>
0.000649258

>  <SCORE.RESTR.CAVITY>
0.000649258

>  <SCORE.RESTR.norm>
4.63756e-05

>  <SCORE.SYSTEM>
-20.9768

>  <SCORE.SYSTEM.CONST>
0

>  <SCORE.SYSTEM.DIHEDRAL>
4.68683

>  <SCORE.SYSTEM.POLAR>
-3.0725

>  <SCORE.SYSTEM.SOLV>
0.16071

>  <SCORE.SYSTEM.VDW>
-5.35871

>  <SCORE.SYSTEM.norm>
-1.49834

>  <SCORE.heavy>
14

>  <SCORE.norm>
-3.46121

$$$$
P128880369
 OpenBabel12072022113D
libRbt.so/2013.1/901 2013/11/27
 17 17  0  0  0  0  0  0  0  0999 V2000
  -23.3512   12.0133  -13.6684 C   0  0  0  0  0  0  0  0  0  0  0  0
  -24.8184   12.3576  -13.9325 C   0  0  2  0  0  0  0  0  0  0  0  0
  -25.6696   11.0846  -13.9563 C   0  0  0  0  0  0  0  0  0  0  0  0
  -27.1300   11.4357  -14.1960 C   0  0  0  0  0  0  0  0  0  0  0  0
  -27.3179   12.3426  -15.4131 C   0  0  0  0  0  0  0  0  0  0  0  0
  -26.4817   13.5534  -15.3314 N   0  0  0  0  0  0  0  0  0  0  0  0
  -25.0316   13.2081  -15.2161 C   0  0  2  0  0  0  0  0  0  0  0  0
  -24.4205   12.5657  -16.4752 C   0  0  0  0  0  0  0  0  0  0  0  0
  -26.7727   14.5211  -16.4355 C   0  0  1  0  0  0  0  0  0  0  0  0
  -28.1802   15.1323  -16.3599 C   0  0  0  0  0  0  0  0  0  0  0  0
  -25.7807   15.7018  -16.3867 C   0  0  0  0  0  0  0  0  0  0  0  0
  -25.0570   16.0114  -17.3326 O   0  0  0  0  0  0  0  0  0  0  0  0
  -25.8156   16.4089  -15.1869 N   0  0  0  0  0  0  0  0  0  0  0  0
  -26.7815   17.4242  -15.0048 N   0  0  0  0  0  0  0  0  0  0  0  0
  -24.9403   16.4472  -14.6600 H   0  0  0  0  0  0  0  0  0  0  0  0
  -26.9547   17.8400  -15.9256 H   0  0  0  0  0  0  0  0  0  0  0  0
  -26.3227   18.1857  -14.4891 H   0  0  0  0  0  0  0  0  0  0  0  0
  2  3  1  0  0  0  0
  2  7  1  0  0  0  0
  2  1  1  6  0  0  0
  3  4  1  0  0  0  0
  4  5  1  0  0  0  0
  5  6  1  0  0  0  0
  6  7  1  0  0  0  0
  6  9  1  0  0  0  0
  7  8  1  6  0  0  0
  9 10  1  1  0  0  0
  9 11  1  0  0  0  0
 11 12  2  0  0  0  0
 11 13  1  0  0  0  0
 13 14  1  0  0  0  0
 13 15  1  0  0  0  0
 14 16  1  0  0  0  0
 14 17  1  0  0  0  0
M  END
>  <CHROM.0>
-58.70018933,-60.86910444,-62.96065500,-42.92084311,-62.60508687,-60.60795225
-67.20150589,-57.96635195,-168.31582409

>  <CHROM.1>
66.22873483,122.83826996,-84.06749611,-31.86548521,-25.89254460,13.89561471
-15.35858585,-1.33621539,-0.09456624,-0.34136543

>  <Name>
P128880369

>  <RI>
0

>  <Rbt.Current_Directory>
/home/fstefaniak/projects/zuza/docking/adenine/4TZX

>  <Rbt.Executable>
rbdock ($Id: //depot/dev/client3/rdock/2013.1/src/exe/rbdock.cxx#4 $)

>  <Rbt.Library>
libRbt.so (2013.1, Build901 2013/11/27)

>  <Rbt.Parameter_File>
/home/fstefaniak/progs/rDock//data/scripts/dock_solv.prm

>  <Rbt.Receptor>
4tzx.prm

>  <SCORE>
-46.8955

>  <SCORE.INTER>
-25.9249

>  <SCORE.INTER.CONST>
1

>  <SCORE.INTER.POLAR>
-2.98733

>  <SCORE.INTER.ROT>
4

>  <SCORE.INTER.SOLV>
11.4852

>  <SCORE.INTER.VDW>
-17.4206

>  <SCORE.INTER.norm>
-1.85178

>  <SCORE.INTRA>
-0.0850541

>  <SCORE.INTRA.DIHEDRAL>
0.159081

>  <SCORE.INTRA.DIHEDRAL.0>
2.56235

>  <SCORE.INTRA.POLAR>
0.0289466

>  <SCORE.INTRA.POLAR.0>
-0.0289466

>  <SCORE.INTRA.REPUL>
0

>  <SCORE.INTRA.REPUL.0>
0

>  <SCORE.INTRA.SOLV>
0.177951

>  <SCORE.INTRA.SOLV.lig_0>
-14.3357

>  <SCORE.INTRA.VDW>
-0.351989

>  <SCORE.INTRA.VDW.0>
0.386712

>  <SCORE.INTRA.norm>
-0.0060753

>  <SCORE.RESTR>
0.16261

>  <SCORE.RESTR.CAVITY>
0.16261

>  <SCORE.RESTR.norm>
0.011615

>  <SCORE.SYSTEM>
-21.0482

>  <SCORE.SYSTEM.CONST>
0

>  <SCORE.SYSTEM.DIHEDRAL>
4.36852

>  <SCORE.SYSTEM.POLAR>
-3.06425

>  <SCORE.SYSTEM.SOLV>
0.190718

>  <SCORE.SYSTEM.VDW>
-5.3377

>  <SCORE.SYSTEM.norm>
-1.50344

>  <SCORE.heavy>
14

>  <SCORE.norm>
-3.34968

$$$$
P128880369
 OpenBabel12072022113D
libRbt.so/2013.1/901 2013/11/27
 17 17  0  0  0  0  0  0  0  0999 V2000
  -23.4888   12.0589  -13.6131 C   0  0  0  0  0  0  0  0  0  0  0  0
  -24.9871   12.2298  -13.8717 C   0  0  2  0  0  0  0  0  0  0  0  0
  -25.6900   10.8691  -13.8575 C   0  0  0  0  0  0  0  0  0  0  0  0
  -27.1821   11.0482  -14.0920 C   0  0  0  0  0  0  0  0  0  0  0  0
  -27.4786   11.8981  -15.3284 C   0  0  0  0  0  0  0  0  0  0  0  0
  -26.7833   13.1966  -15.2832 N   0  0  0  0  0  0  0  0  0  0  0  0
  -25.3029   13.0192  -15.1731 C   0  0  2  0  0  0  0  0  0  0  0  0
  -24.6316   12.4185  -16.4222 C   0  0  0  0  0  0  0  0  0  0  0  0
  -27.1883   14.0981  -16.4072 C   0  0  1  0  0  0  0  0  0  0  0  0
  -28.6854   14.4432  -16.4073 C   0  0  0  0  0  0  0  0  0  0  0  0
  -26.4311   15.4393  -16.3162 C   0  0  0  0  0  0  0  0  0  0  0  0
  -26.5931   16.2419  -15.3976 O   0  0  0  0  0  0  0  0  0  0  0  0
  -25.5161   15.6330  -17.3487 N   0  0  0  0  0  0  0  0  0  0  0  0
  -24.6239   16.7273  -17.2922 N   0  0  0  0  0  0  0  0  0  0  0  0
  -25.7696   15.2372  -18.2566 H   0  0  0  0  0  0  0  0  0  0  0  0
  -23.9696   16.5398  -16.5257 H   0  0  0  0  0  0  0  0  0  0  0  0
  -25.1597   17.5338  -16.9475 H   0  0  0  0  0  0  0  0  0  0  0  0
  2  3  1  0  0  0  0
  2  7  1  0  0  0  0
  2  1  1  6  0  0  0
  3  4  1  0  0  0  0
  4  5  1  0  0  0  0
  5  6  1  0  0  0  0
  6  7  1  0  0  0  0
  6  9  1  0  0  0  0
  7  8  1  6  0  0  0
  9 10  1  1  0  0  0
  9 11  1  0  0  0  0
 11 12  2  0  0  0  0
 11 13  1  0  0  0  0
 13 14  1  0  0  0  0
 13 15  1  0  0  0  0
 14 16  1  0  0  0  0
 14 17  1  0  0  0  0
M  END
>  <CHROM.0>
-59.85866360,-175.44164755,-62.87135650,50.00271181,-56.65980597,-59.95566929
-68.82704549,59.73930937,-168.25269904

>  <CHROM.1>
60.82063014,-65.84890184,-171.32110708,68.58744933,-26.02350789,13.57201754
-15.50850625,-1.47302619,-0.12946629,-0.51476374

>  <Name>
P128880369

>  <RI>
0

>  <Rbt.Current_Directory>
/home/fstefaniak/projects/zuza/docking/adenine/4TZX

>  <Rbt.Executable>
rbdock ($Id: //depot/dev/client3/rdock/2013.1/src/exe/rbdock.cxx#4 $)

>  <Rbt.Library>
libRbt.so (2013.1, Build901 2013/11/27)

>  <Rbt.Parameter_File>
/home/fstefaniak/progs/rDock//data/scripts/dock_solv.prm

>  <Rbt.Receptor>
4tzx.prm

>  <SCORE>
-44.3847

>  <SCORE.INTER>
-27.6629

>  <SCORE.INTER.CONST>
1

>  <SCORE.INTER.POLAR>
-3.48633

>  <SCORE.INTER.ROT>
4

>  <SCORE.INTER.SOLV>
13.2289

>  <SCORE.INTER.VDW>
-17.4972

>  <SCORE.INTER.norm>
-1.97592

>  <SCORE.INTRA>
0.283944

>  <SCORE.INTRA.DIHEDRAL>
1.22369

>  <SCORE.INTRA.DIHEDRAL.0>
2.56235

>  <SCORE.INTRA.POLAR>
0.0289466

>  <SCORE.INTRA.POLAR.0>
-0.0289466

>  <SCORE.INTRA.REPUL>
0

>  <SCORE.INTRA.REPUL.0>
0

>  <SCORE.INTRA.SOLV>
-0.310441

>  <SCORE.INTRA.SOLV.lig_0>
-14.3357

>  <SCORE.INTRA.VDW>
-0.271099

>  <SCORE.INTRA.VDW.0>
0.386712

>  <SCORE.INTRA.norm>
0.0202817

>  <SCORE.RESTR>
0.00844291

>  <SCORE.RESTR.CAVITY>
0.00844291

>  <SCORE.RESTR.norm>
0.000603065

>  <SCORE.SYSTEM>
-17.0142

>  <SCORE.SYSTEM.CONST>
0

>  <SCORE.SYSTEM.DIHEDRAL>
3.73485

>  <SCORE.SYSTEM.POLAR>
-2.48513

>  <SCORE.SYSTEM.SOLV>
-0.0672051

>  <SCORE.SYSTEM.VDW>
-4.28156

>  <SCORE.SYSTEM.norm>
-1.2153

>  <SCORE.heavy>
14

>  <SCORE.norm>
-3.17034

$$$$
P128938770
 OpenBabel12072022113D
libRbt.so/2013.1/901 2013/11/27
 12 12  0  0  0  0  0  0  0  0999 V2000
  -25.9684   15.4729  -16.1253 C   0  0  0  0  0  0  0  0  0  0  0  0
  -26.7579   14.2644  -15.8541 N   0  0  0  0  0  0  0  0  0  0  0  0
  -28.1462   14.4513  -16.3565 C   0  0  0  0  0  0  0  0  0  0  0  0
  -29.0076   15.3619  -15.5692 C   0  0  0  0  0  0  0  0  0  0  0  0
  -29.6740   16.0798  -14.9451 N   0  0  0  0  0  0  0  0  0  0  0  0
  -26.0975   13.0259  -16.3743 C   0  0  1  0  0  0  0  0  0  0  0  0
  -24.8192   12.6586  -15.5795 C   0  0  0  0  0  0  0  0  0  0  0  0
  -25.1499   12.2508  -14.1419 C   0  0  0  0  0  0  0  0  0  0  0  0
  -26.2068   11.1446  -14.1050 C   0  0  0  0  0  0  0  0  0  0  0  0
  -27.4003   11.4874  -14.8886 N   0  0  0  0  0  0  0  0  0  0  0  0
  -27.0180   11.7710  -16.2829 C   0  0  0  0  0  0  0  0  0  0  0  0
  -27.7788   12.3560  -14.5016 H   0  0  0  0  0  0  0  0  0  0  0  0
  1  2  1  0  0  0  0
  2  3  1  0  0  0  0
  3  4  1  0  0  0  0
  4  5  3  0  0  0  0
  6  2  1  1  0  0  0
  6  7  1  0  0  0  0
  6 11  1  0  0  0  0
  7  8  1  0  0  0  0
  8  9  1  0  0  0  0
  9 10  1  0  0  0  0
 10 11  1  0  0  0  0
 10 12  1  0  0  0  0
M  END
>  <CHROM.0>
-60.26950703,-61.35938187,-65.79120297,-42.32511749,-59.20573645,-62.26751151
-67.92588718,-60.18415509,-167.95093487

>  <CHROM.1>
-73.29893193,69.56614268,-26.90845042,13.43525318,-15.46558958,-2.22103913
-0.19890043,2.80923227

>  <Name>
P128938770

>  <RI>
0

>  <Rbt.Current_Directory>
/home/fstefaniak/projects/zuza/docking/adenine/4TZX

>  <Rbt.Executable>
rbdock ($Id: //depot/dev/client3/rdock/2013.1/src/exe/rbdock.cxx#4 $)

>  <Rbt.Library>
libRbt.so (2013.1, Build901 2013/11/27)

>  <Rbt.Parameter_File>
/home/fstefaniak/progs/rDock//data/scripts/dock_solv.prm

>  <Rbt.Receptor>
4tzx.prm

>  <SCORE>
-40.3554

>  <SCORE.INTER>
-19.2169

>  <SCORE.INTER.CONST>
1

>  <SCORE.INTER.POLAR>
-1.92012

>  <SCORE.INTER.ROT>
2

>  <SCORE.INTER.SOLV>
6.35656

>  <SCORE.INTER.VDW>
-13.463

>  <SCORE.INTER.norm>
-1.74699

>  <SCORE.INTRA>
-0.0345674

>  <SCORE.INTRA.DIHEDRAL>
0.613508

>  <SCORE.INTRA.DIHEDRAL.0>
0.0595247

>  <SCORE.INTRA.POLAR>
0

>  <SCORE.INTRA.POLAR.0>
0

>  <SCORE.INTRA.REPUL>
0

>  <SCORE.INTRA.REPUL.0>
0

>  <SCORE.INTRA.SOLV>
-0.087901

>  <SCORE.INTRA.SOLV.lig_0>
-10.4771

>  <SCORE.INTRA.VDW>
-0.297371

>  <SCORE.INTRA.VDW.0>
1.93032

>  <SCORE.INTRA.norm>
-0.00314249

>  <SCORE.RESTR>
0.0331231

>  <SCORE.RESTR.CAVITY>
0.0331231

>  <SCORE.RESTR.norm>
0.00301119

>  <SCORE.SYSTEM>
-21.1371

>  <SCORE.SYSTEM.CONST>
0

>  <SCORE.SYSTEM.DIHEDRAL>
4.62548

>  <SCORE.SYSTEM.POLAR>
-3.05913

>  <SCORE.SYSTEM.SOLV>
0.180407

>  <SCORE.SYSTEM.VDW>
-5.49625

>  <SCORE.SYSTEM.norm>
-1.92155

>  <SCORE.heavy>
11

>  <SCORE.norm>
-3.66867

$$$$
P128938770
 OpenBabel12072022113D
libRbt.so/2013.1/901 2013/11/27
 12 12  0  0  0  0  0  0  0  0999 V2000
  -25.9331   15.4511  -16.1448 C   0  0  0  0  0  0  0  0  0  0  0  0
  -26.7479   14.2603  -15.8708 N   0  0  0  0  0  0  0  0  0  0  0  0
  -28.1290   14.4709  -16.3840 C   0  0  0  0  0  0  0  0  0  0  0  0
  -28.9872   15.3803  -15.5919 C   0  0  0  0  0  0  0  0  0  0  0  0
  -29.6513   16.0971  -14.9640 N   0  0  0  0  0  0  0  0  0  0  0  0
  -26.1086   13.0056  -16.3782 C   0  0  1  0  0  0  0  0  0  0  0  0
  -24.8199   12.6412  -15.5989 C   0  0  0  0  0  0  0  0  0  0  0  0
  -25.1289   12.2647  -14.1481 C   0  0  0  0  0  0  0  0  0  0  0  0
  -26.1954   11.1697  -14.0710 C   0  0  0  0  0  0  0  0  0  0  0  0
  -27.3993   11.5089  -14.8402 N   0  0  0  0  0  0  0  0  0  0  0  0
  -27.0390   11.7617  -16.2462 C   0  0  0  0  0  0  0  0  0  0  0  0
  -27.7627   12.3885  -14.4636 H   0  0  0  0  0  0  0  0  0  0  0  0
  1  2  1  0  0  0  0
  2  3  1  0  0  0  0
  3  4  1  0  0  0  0
  4  5  3  0  0  0  0
  6  2  1  1  0  0  0
  6  7  1  0  0  0  0
  6 11  1  0  0  0  0
  7  8  1  0  0  0  0
  8  9  1  0  0  0  0
  9 10  1  0  0  0  0
 10 11  1  0  0  0  0
 10 12  1  0  0  0  0
M  END
>  <CHROM.0>
-54.11650277,-59.05233964,-62.58755523,-43.56877839,-56.75574915,-60.81290716
-67.25632522,-60.95639941,-168.78276594

>  <CHROM.1>
-74.60176718,67.89197144,-26.89858632,13.43914503,-15.46657489,-2.21945820
-0.20764445,2.79302658

>  <Name>
P128938770

>  <RI>
0

>  <Rbt.Current_Directory>
/home/fstefaniak/projects/zuza/docking/adenine/4TZX

>  <Rbt.Executable>
rbdock ($Id: //depot/dev/client3/rdock/2013.1/src/exe/rbdock.cxx#4 $)

>  <Rbt.Library>
libRbt.so (2013.1, Build901 2013/11/27)

>  <Rbt.Parameter_File>
/home/fstefaniak/progs/rDock//data/scripts/dock_solv.prm

>  <Rbt.Receptor>
4tzx.prm

>  <SCORE>
-40.3394

>  <SCORE.INTER>
-19.244

>  <SCORE.INTER.CONST>
1

>  <SCORE.INTER.POLAR>
-1.87278

>  <SCORE.INTER.ROT>
2

>  <SCORE.INTER.SOLV>
6.40308

>  <SCORE.INTER.VDW>
-13.6544

>  <SCORE.INTER.norm>
-1.74946

>  <SCORE.INTRA>
-0.103807

>  <SCORE.INTRA.DIHEDRAL>
0.61888

>  <SCORE.INTRA.DIHEDRAL.0>
0.0595247

>  <SCORE.INTRA.POLAR>
0

>  <SCORE.INTRA.POLAR.0>
0

>  <SCORE.INTRA.REPUL>
0

>  <SCORE.INTRA.REPUL.0>
0

>  <SCORE.INTRA.SOLV>
-0.0959901

>  <SCORE.INTRA.SOLV.lig_0>
-10.4771

>  <SCORE.INTRA.VDW>
-0.365251

>  <SCORE.INTRA.VDW.0>
1.93032

>  <SCORE.INTRA.norm>
-0.00943696

>  <SCORE.RESTR>
0.0267747

>  <SCORE.RESTR.CAVITY>
0.0267747

>  <SCORE.RESTR.norm>
0.00243406

>  <SCORE.SYSTEM>
-21.0183

>  <SCORE.SYSTEM.CONST>
0

>  <SCORE.SYSTEM.DIHEDRAL>
4.37959

>  <SCORE.SYSTEM.POLAR>
-3.09595

>  <SCORE.SYSTEM.SOLV>
0.20183

>  <SCORE.SYSTEM.VDW>
-5.21954

>  <SCORE.SYSTEM.norm>
-1.91076

>  <SCORE.heavy>
11

>  <SCORE.norm>
-3.66722

$$$$
P128938770
 OpenBabel12072022113D
libRbt.so/2013.1/901 2013/11/27
 12 12  0  0  0  0  0  0  0  0999 V2000
  -25.9945   15.4852  -16.1144 C   0  0  0  0  0  0  0  0  0  0  0  0
  -26.7797   14.2734  -15.8461 N   0  0  0  0  0  0  0  0  0  0  0  0
  -28.1685   14.4564  -16.3488 C   0  0  0  0  0  0  0  0  0  0  0  0
  -29.0367   15.3536  -15.5537 C   0  0  0  0  0  0  0  0  0  0  0  0
  -29.7086   16.0611  -14.9236 N   0  0  0  0  0  0  0  0  0  0  0  0
  -26.1147   13.0384  -16.3688 C   0  0  1  0  0  0  0  0  0  0  0  0
  -24.8374   12.6718  -15.5720 C   0  0  0  0  0  0  0  0  0  0  0  0
  -25.1707   12.2584  -14.1367 C   0  0  0  0  0  0  0  0  0  0  0  0
  -26.2247   11.1492  -14.1062 C   0  0  0  0  0  0  0  0  0  0  0  0
  -27.4171   11.4915  -14.8917 N   0  0  0  0  0  0  0  0  0  0  0  0
  -27.0320   11.7807  -16.2839 C   0  0  0  0  0  0  0  0  0  0  0  0
  -27.7989   12.3577  -14.5027 H   0  0  0  0  0  0  0  0  0  0  0  0
  1  2  1  0  0  0  0
  2  3  1  0  0  0  0
  3  4  1  0  0  0  0
  4  5  3  0  0  0  0
  6  2  1  1  0  0  0
  6  7  1  0  0  0  0
  6 11  1  0  0  0  0
  7  8  1  0  0  0  0
  8  9  1  0  0  0  0
  9 10  1  0  0  0  0
 10 11  1  0  0  0  0
 10 12  1  0  0  0  0
M  END
>  <CHROM.0>
-57.84102609,-178.16498654,-63.39230782,-43.81697942,60.33440742,-61.39100719
-64.67961618,-175.05375551,-168.88184773

>  <CHROM.1>
-73.77082339,69.71298423,-26.93012167,13.44005371,-15.45874911,-2.22587552
-0.19936541,2.81036043

>  <Name>
P128938770

>  <RI>
0

>  <Rbt.Current_Directory>
/home/fstefaniak/projects/zuza/docking/adenine/4TZX

>  <Rbt.Executable>
rbdock ($Id: //depot/dev/client3/rdock/2013.1/src/exe/rbdock.cxx#4 $)

>  <Rbt.Library>
libRbt.so (2013.1, Build901 2013/11/27)

>  <Rbt.Parameter_File>
/home/fstefaniak/progs/rDock//data/scripts/dock_solv.prm

>  <Rbt.Receptor>
4tzx.prm

>  <SCORE>
-39.4694

>  <SCORE.INTER>
-19.3556

>  <SCORE.INTER.CONST>
1

>  <SCORE.INTER.POLAR>
-1.95822

>  <SCORE.INTER.ROT>
2

>  <SCORE.INTER.SOLV>
6.38858

>  <SCORE.INTER.VDW>
-13.4392

>  <SCORE.INTER.norm>
-1.7596

>  <SCORE.INTRA>
-0.0281995

>  <SCORE.INTRA.DIHEDRAL>
0.641405

>  <SCORE.INTRA.DIHEDRAL.0>
0.0595247

>  <SCORE.INTRA.POLAR>
0

>  <SCORE.INTRA.POLAR.0>
0

>  <SCORE.INTRA.REPUL>
0

>  <SCORE.INTRA.REPUL.0>
0

>  <SCORE.INTRA.SOLV>
-0.0867248

>  <SCORE.INTRA.SOLV.lig_0>
-10.4771

>  <SCORE.INTRA.VDW>
-0.30554

>  <SCORE.INTRA.VDW.0>
1.93032

>  <SCORE.INTRA.norm>
-0.00256359

>  <SCORE.RESTR>
0.0305906

>  <SCORE.RESTR.CAVITY>
0.0305906

>  <SCORE.RESTR.norm>
0.00278096

>  <SCORE.SYSTEM>
-20.1162

>  <SCORE.SYSTEM.CONST>
0

>  <SCORE.SYSTEM.DIHEDRAL>
4.16047

>  <SCORE.SYSTEM.POLAR>
-3.04986

>  <SCORE.SYSTEM.SOLV>
-0.179018

>  <SCORE.SYSTEM.VDW>
-4.57175

>  <SCORE.SYSTEM.norm>
-1.82875

>  <SCORE.heavy>
11

>  <SCORE.norm>
-3.58813

$$$$
P128996790
 OpenBabel12072022113D
libRbt.so/2013.1/901 2013/11/27
 16 16  0  0  0  0  0  0  0  0999 V2000
  -29.7505   17.5411  -14.7087 C   0  0  0  0  0  0  0  0  0  0  0  0
  -31.2684   17.5588  -14.5765 C   0  0  0  0  0  0  0  0  0  0  0  0
  -31.8322   18.5319  -15.4542 O   0  0  0  0  0  0  0  0  0  0  0  0
  -31.5593   18.2526  -16.8259 C   0  0  0  0  0  0  0  0  0  0  0  0
  -30.0566   18.2546  -17.0904 C   0  0  0  0  0  0  0  0  0  0  0  0
  -29.3065   17.2892  -16.1594 C   0  0  0  0  0  0  0  0  0  0  0  0
  -29.5204   15.8303  -16.5945 C   0  0  0  0  0  0  0  0  0  0  0  0
  -28.4916   14.9551  -16.0679 N   0  0  0  0  0  0  0  0  0  0  0  0
  -27.1652   15.2855  -16.2152 C   0  0  0  0  0  0  0  0  0  0  0  0
  -26.6189   16.2436  -15.6809 O   0  0  0  0  0  0  0  0  0  0  0  0
  -26.5121   14.4016  -17.0651 N   0  0  0  0  0  0  0  0  0  0  0  0
  -25.4006   13.6794  -16.5605 N   0  0  0  0  0  0  0  0  0  0  0  0
  -28.7054   14.4611  -15.2128 H   0  0  0  0  0  0  0  0  0  0  0  0
  -26.4718   14.6786  -18.0425 H   0  0  0  0  0  0  0  0  0  0  0  0
  -25.6995   13.2468  -15.6814 H   0  0  0  0  0  0  0  0  0  0  0  0
  -24.7110   14.3796  -16.2512 H   0  0  0  0  0  0  0  0  0  0  0  0
  1  2  1  0  0  0  0
  1  6  1  0  0  0  0
  2  3  1  0  0  0  0
  3  4  1  0  0  0  0
  4  5  1  0  0  0  0
  5  6  1  0  0  0  0
  6  7  1  0  0  0  0
  7  8  1  0  0  0  0
  8  9  1  0  0  0  0
  8 13  1  0  0  0  0
  9 10  2  0  0  0  0
  9 11  1  0  0  0  0
 11 12  1  0  0  0  0
 11 14  1  0  0  0  0
 12 15  1  0  0  0  0
 12 16  1  0  0  0  0
M  END
>  <CHROM.0>
-54.92739935,-168.23786792,-72.06697036,-43.10126239,-57.58374687,-64.47457920
-168.11982694,178.57613750,-169.04478463

>  <CHROM.1>
-77.83242909,-49.87913230,66.50009093,-120.99883430,50.81524494,-28.92294899
16.46251217,-16.07434403,-2.99244953,0.63072233,-1.62846913

>  <Name>
P128996790

>  <RI>
0

>  <Rbt.Current_Directory>
/home/fstefaniak/projects/zuza/docking/adenine/4TZX

>  <Rbt.Executable>
rbdock ($Id: //depot/dev/client3/rdock/2013.1/src/exe/rbdock.cxx#4 $)

>  <Rbt.Library>
libRbt.so (2013.1, Build901 2013/11/27)

>  <Rbt.Parameter_File>
/home/fstefaniak/progs/rDock//data/scripts/dock_solv.prm

>  <Rbt.Receptor>
4tzx.prm

>  <SCORE>
-53.3951

>  <SCORE.INTER>
-33.233

>  <SCORE.INTER.CONST>
1

>  <SCORE.INTER.POLAR>
-4.43405

>  <SCORE.INTER.ROT>
5

>  <SCORE.INTER.SOLV>
13.1513

>  <SCORE.INTER.VDW>
-18.6923

>  <SCORE.INTER.norm>
-2.76942

>  <SCORE.INTRA>
-0.0453367

>  <SCORE.INTRA.DIHEDRAL>
0.62183

>  <SCORE.INTRA.DIHEDRAL.0>
2.52781

>  <SCORE.INTRA.POLAR>
0

>  <SCORE.INTRA.POLAR.0>
0

>  <SCORE.INTRA.REPUL>
0

>  <SCORE.INTRA.REPUL.0>
0

>  <SCORE.INTRA.SOLV>
0.47295

>  <SCORE.INTRA.SOLV.lig_0>
-19.1749

>  <SCORE.INTRA.VDW>
-0.592727

>  <SCORE.INTRA.VDW.0>
-0.439135

>  <SCORE.INTRA.norm>
-0.00377805

>  <SCORE.RESTR>
0

>  <SCORE.RESTR.CAVITY>
0

>  <SCORE.RESTR.norm>
0

>  <SCORE.SYSTEM>
-20.1168

>  <SCORE.SYSTEM.CONST>
0

>  <SCORE.SYSTEM.DIHEDRAL>
6.09424

>  <SCORE.SYSTEM.POLAR>
-3.07172

>  <SCORE.SYSTEM.SOLV>
-0.00629084

>  <SCORE.SYSTEM.VDW>
-5.20143

>  <SCORE.SYSTEM.norm>
-1.6764

>  <SCORE.heavy>
12

>  <SCORE.norm>
-4.4496

$$$$
P128996790
 OpenBabel12072022113D
libRbt.so/2013.1/901 2013/11/27
 16 16  0  0  0  0  0  0  0  0999 V2000
  -30.0686   17.3753  -17.6045 C   0  0  0  0  0  0  0  0  0  0  0  0
  -30.3769   18.7806  -17.1026 C   0  0  0  0  0  0  0  0  0  0  0  0
  -31.4749   18.7534  -16.1921 O   0  0  0  0  0  0  0  0  0  0  0  0
  -31.2015   17.9714  -15.0312 C   0  0  0  0  0  0  0  0  0  0  0  0
  -30.9208   16.5202  -15.4094 C   0  0  0  0  0  0  0  0  0  0  0  0
  -29.7919   16.4030  -16.4454 C   0  0  0  0  0  0  0  0  0  0  0  0
  -28.4209   16.6422  -15.7923 C   0  0  0  0  0  0  0  0  0  0  0  0
  -27.3348   16.1895  -16.6392 N   0  0  0  0  0  0  0  0  0  0  0  0
  -26.2051   15.6438  -16.0769 C   0  0  0  0  0  0  0  0  0  0  0  0
  -26.1636   14.5667  -15.4939 O   0  0  0  0  0  0  0  0  0  0  0  0
  -25.1043   16.4762  -16.2368 N   0  0  0  0  0  0  0  0  0  0  0  0
  -24.2995   16.3137  -17.3933 N   0  0  0  0  0  0  0  0  0  0  0  0
  -27.5873   15.7943  -17.5342 H   0  0  0  0  0  0  0  0  0  0  0  0
  -24.6256   16.7430  -15.3804 H   0  0  0  0  0  0  0  0  0  0  0  0
  -24.0133   17.2508  -17.6922 H   0  0  0  0  0  0  0  0  0  0  0  0
  -24.9301   16.0119  -18.1501 H   0  0  0  0  0  0  0  0  0  0  0  0
  1  2  1  0  0  0  0
  1  6  1  0  0  0  0
  2  3  1  0  0  0  0
  3  4  1  0  0  0  0
  4  5  1  0  0  0  0
  5  6  1  0  0  0  0
  6  7  1  0  0  0  0
  7  8  1  0  0  0  0
  8  9  1  0  0  0  0
  8 13  1  0  0  0  0
  9 10  2  0  0  0  0
  9 11  1  0  0  0  0
 11 12  1  0  0  0  0
 11 14  1  0  0  0  0
 12 15  1  0  0  0  0
 12 16  1  0  0  0  0
M  END
>  <CHROM.0>
-57.39121798,-62.35823511,57.57894444,-43.24372461,-56.47898684,58.13028852
-56.39945415,-174.11946000,-168.28612588

>  <CHROM.1>
-73.06425795,-145.05327200,68.17494440,-90.31305672,142.13367290,-28.40114394
16.80751590,-16.29710891,-2.90199639,-0.27612558,2.44580895

>  <Name>
P128996790

>  <RI>
0

>  <Rbt.Current_Directory>
/home/fstefaniak/projects/zuza/docking/adenine/4TZX

>  <Rbt.Executable>
rbdock ($Id: //depot/dev/client3/rdock/2013.1/src/exe/rbdock.cxx#4 $)

>  <Rbt.Library>
libRbt.so (2013.1, Build901 2013/11/27)

>  <Rbt.Parameter_File>
/home/fstefaniak/progs/rDock//data/scripts/dock_solv.prm

>  <Rbt.Receptor>
4tzx.prm

>  <SCORE>
-52.5204

>  <SCORE.INTER>
-36.2607

>  <SCORE.INTER.CONST>
1

>  <SCORE.INTER.POLAR>
-5.11727

>  <SCORE.INTER.ROT>
5

>  <SCORE.INTER.SOLV>
16.1608

>  <SCORE.INTER.VDW>
-19.4365

>  <SCORE.INTER.norm>
-3.02173

>  <SCORE.INTRA>
0.270512

>  <SCORE.INTRA.DIHEDRAL>
1.47088

>  <SCORE.INTRA.DIHEDRAL.0>
2.52781

>  <SCORE.INTRA.POLAR>
0

>  <SCORE.INTRA.POLAR.0>
0

>  <SCORE.INTRA.REPUL>
0

>  <SCORE.INTRA.REPUL.0>
0

>  <SCORE.INTRA.SOLV>
-0.010033

>  <SCORE.INTRA.SOLV.lig_0>
-19.1749

>  <SCORE.INTRA.VDW>
-0.459913

>  <SCORE.INTRA.VDW.0>
-0.439135

>  <SCORE.INTRA.norm>
0.0225427

>  <SCORE.RESTR>
0

>  <SCORE.RESTR.CAVITY>
0

>  <SCORE.RESTR.norm>
0

>  <SCORE.SYSTEM>
-16.5302

>  <SCORE.SYSTEM.CONST>
0

>  <SCORE.SYSTEM.DIHEDRAL>
4.36044

>  <SCORE.SYSTEM.POLAR>
-2.56063

>  <SCORE.SYSTEM.SOLV>
-0.119759

>  <SCORE.SYSTEM.VDW>
-3.89825

>  <SCORE.SYSTEM.norm>
-1.37752

>  <SCORE.heavy>
12

>  <SCORE.norm>
-4.3767

$$$$
P128996790
 OpenBabel12072022113D
libRbt.so/2013.1/901 2013/11/27
 16 16  0  0  0  0  0  0  0  0999 V2000
  -30.0435   17.3217  -17.5921 C   0  0  0  0  0  0  0  0  0  0  0  0
  -30.1695   18.7359  -17.0389 C   0  0  0  0  0  0  0  0  0  0  0  0
  -31.2473   18.8108  -16.1072 O   0  0  0  0  0  0  0  0  0  0  0  0
  -31.0522   17.9619  -14.9780 C   0  0  0  0  0  0  0  0  0  0  0  0
  -30.9570   16.5012  -15.4086 C   0  0  0  0  0  0  0  0  0  0  0  0
  -29.8683   16.2836  -16.4709 C   0  0  0  0  0  0  0  0  0  0  0  0
  -28.4677   16.3319  -15.8390 C   0  0  0  0  0  0  0  0  0  0  0  0
  -27.4789   15.6745  -16.6707 N   0  0  0  0  0  0  0  0  0  0  0  0
  -27.3122   14.3118  -16.5953 C   0  0  0  0  0  0  0  0  0  0  0  0
  -27.1142   13.6870  -15.5598 O   0  0  0  0  0  0  0  0  0  0  0  0
  -27.3804   13.7207  -17.8508 N   0  0  0  0  0  0  0  0  0  0  0  0
  -28.1130   12.5141  -17.9880 N   0  0  0  0  0  0  0  0  0  0  0  0
  -27.3243   16.0628  -17.5907 H   0  0  0  0  0  0  0  0  0  0  0  0
  -26.5510   13.8205  -18.4304 H   0  0  0  0  0  0  0  0  0  0  0  0
  -27.4328   11.7712  -18.1748 H   0  0  0  0  0  0  0  0  0  0  0  0
  -28.6298   12.5835  -18.8766 H   0  0  0  0  0  0  0  0  0  0  0  0
  1  2  1  0  0  0  0
  1  6  1  0  0  0  0
  2  3  1  0  0  0  0
  3  4  1  0  0  0  0
  4  5  1  0  0  0  0
  5  6  1  0  0  0  0
  6  7  1  0  0  0  0
  7  8  1  0  0  0  0
  8  9  1  0  0  0  0
  8 13  1  0  0  0  0
  9 10  2  0  0  0  0
  9 11  1  0  0  0  0
 11 12  1  0  0  0  0
 11 14  1  0  0  0  0
 12 15  1  0  0  0  0
 12 16  1  0  0  0  0
M  END
>  <CHROM.0>
-56.52326138,-58.82652858,-43.98155164,-42.00324917,-54.10137937,-56.61123277
-64.46601821,-49.04968469,-167.44192839

>  <CHROM.1>
-78.14082012,-83.99614469,-52.82071041,-137.25471212,-111.03985031,-29.08140990
15.95583126,-16.53273041,2.93216621,-0.93534479,1.53025691

>  <Name>
P128996790

>  <RI>
0

>  <Rbt.Current_Directory>
/home/fstefaniak/projects/zuza/docking/adenine/4TZX

>  <Rbt.Executable>
rbdock ($Id: //depot/dev/client3/rdock/2013.1/src/exe/rbdock.cxx#4 $)

>  <Rbt.Library>
libRbt.so (2013.1, Build901 2013/11/27)

>  <Rbt.Parameter_File>
/home/fstefaniak/progs/rDock//data/scripts/dock_solv.prm

>  <Rbt.Receptor>
4tzx.prm

>  <SCORE>
-51.9101

>  <SCORE.INTER>
-31.2475

>  <SCORE.INTER.CONST>
1

>  <SCORE.INTER.POLAR>
-4.54212

>  <SCORE.INTER.ROT>
5

>  <SCORE.INTER.SOLV>
13.9131

>  <SCORE.INTER.VDW>
-17.2623

>  <SCORE.INTER.norm>
-2.60395

>  <SCORE.INTRA>
-0.439596

>  <SCORE.INTRA.DIHEDRAL>
0.854658

>  <SCORE.INTRA.DIHEDRAL.0>
2.52781

>  <SCORE.INTRA.POLAR>
0

>  <SCORE.INTRA.POLAR.0>
0

>  <SCORE.INTRA.REPUL>
0

>  <SCORE.INTRA.REPUL.0>
0

>  <SCORE.INTRA.SOLV>
0.11716

>  <SCORE.INTRA.SOLV.lig_0>
-19.1749

>  <SCORE.INTRA.VDW>
-0.925505

>  <SCORE.INTRA.VDW.0>
-0.439135

>  <SCORE.INTRA.norm>
-0.036633

>  <SCORE.RESTR>
0

>  <SCORE.RESTR.CAVITY>
0

>  <SCORE.RESTR.norm>
0

>  <SCORE.SYSTEM>
-20.223

>  <SCORE.SYSTEM.CONST>
0

>  <SCORE.SYSTEM.DIHEDRAL>
6.2506

>  <SCORE.SYSTEM.POLAR>
-3.29046

>  <SCORE.SYSTEM.SOLV>
0.252623

>  <SCORE.SYSTEM.VDW>
-4.68158

>  <SCORE.SYSTEM.norm>
-1.68525

>  <SCORE.heavy>
12

>  <SCORE.norm>
-4.32584

$$$$
P129010386
 OpenBabel12072022113D
libRbt.so/2013.1/901 2013/11/27
 17 16  0  0  0  0  0  0  0  0999 V2000
  -27.2373   12.0810  -14.9706 C   0  0  0  0  0  0  0  0  0  0  0  0
  -26.8694   12.2048  -16.4560 C   0  0  0  0  0  0  0  0  0  0  0  0
  -26.9778   10.8206  -17.1065 C   0  0  0  0  0  0  0  0  0  0  0  0
  -27.7643   13.2610  -17.1442 C   0  0  1  0  0  0  0  0  0  0  0  0
  -27.6331   14.6962  -16.5676 C   0  0  0  0  0  0  0  0  0  0  0  0
  -26.6991   15.4177  -16.9190 O   0  0  0  0  0  0  0  0  0  0  0  0
  -28.4687   15.1206  -15.5642 N   0  0  0  0  0  0  0  0  0  0  0  0
  -29.3975   16.1085  -15.7361 C   0  0  0  0  0  0  0  0  0  0  0  0
  -30.3879   16.2558  -15.0277 O   0  0  0  0  0  0  0  0  0  0  0  0
  -29.1343   16.9259  -16.7809 N   0  0  0  0  0  0  0  0  0  0  0  0
  -27.5585   13.2778  -18.6294 N   0  3  0  0  0  0  0  0  0  0  0  0
  -27.3441   14.2535  -18.9274 H   0  0  0  0  0  0  0  0  0  0  0  0
  -26.8010   12.6699  -18.9535 H   0  0  0  0  0  0  0  0  0  0  0  0
  -28.4203   13.0101  -19.1219 H   0  0  0  0  0  0  0  0  0  0  0  0
  -28.8382   14.3379  -15.0358 H   0  0  0  0  0  0  0  0  0  0  0  0
  -29.8799   17.3984  -17.2779 H   0  0  0  0  0  0  0  0  0  0  0  0
  -28.2611   17.4441  -16.7455 H   0  0  0  0  0  0  0  0  0  0  0  0
  1  2  1  0  0  0  0
  2  3  1  0  0  0  0
  4  2  1  1  0  0  0
  4  5  1  0  0  0  0
  4 11  1  0  0  0  0
  5  6  2  0  0  0  0
  5  7  1  0  0  0  0
  7  8  1  0  0  0  0
  7 15  1  0  0  0  0
  8  9  2  0  0  0  0
  8 10  1  0  0  0  0
 10 16  1  0  0  0  0
 10 17  1  0  0  0  0
 11 12  1  0  0  0  0
 11 13  1  0  0  0  0
 11 14  1  0  0  0  0
M  CHG  1  11   1
M  END
>  <CHROM.0>
-61.88812864,170.05043071,-67.24510275,-43.20925588,-57.16648694,-62.88692811
-66.13399193,-63.23532190,-170.05435093

>  <CHROM.1>
61.28877605,81.19941638,-126.93616677,-113.50238448,158.28571861,151.87743043
-28.01857063,14.21557988,-16.47810309,0.54444097,-1.01296075,2.41259694

>  <Name>
P129010386

>  <RI>
0

>  <Rbt.Current_Directory>
/home/fstefaniak/projects/zuza/docking/adenine/4TZX

>  <Rbt.Executable>
rbdock ($Id: //depot/dev/client3/rdock/2013.1/src/exe/rbdock.cxx#4 $)

>  <Rbt.Library>
libRbt.so (2013.1, Build901 2013/11/27)

>  <Rbt.Parameter_File>
/home/fstefaniak/progs/rDock//data/scripts/dock_solv.prm

>  <Rbt.Receptor>
4tzx.prm

>  <SCORE>
-48.6848

>  <SCORE.INTER>
-32.4729

>  <SCORE.INTER.CONST>
1

>  <SCORE.INTER.POLAR>
-6.0179

>  <SCORE.INTER.ROT>
5

>  <SCORE.INTER.SOLV>
19.9766

>  <SCORE.INTER.VDW>
-15.1811

>  <SCORE.INTER.norm>
-2.95208

>  <SCORE.INTRA>
3.59247

>  <SCORE.INTRA.DIHEDRAL>
3.94452

>  <SCORE.INTRA.DIHEDRAL.0>
2.79771

>  <SCORE.INTRA.POLAR>
0.835283

>  <SCORE.INTRA.POLAR.0>
-0.835283

>  <SCORE.INTRA.REPUL>
0

>  <SCORE.INTRA.REPUL.0>
0

>  <SCORE.INTRA.SOLV>
-3.18609

>  <SCORE.INTRA.SOLV.lig_0>
-33.3433

>  <SCORE.INTRA.VDW>
0.373294

>  <SCORE.INTRA.VDW.0>
-0.69693

>  <SCORE.INTRA.norm>
0.326588

>  <SCORE.RESTR>
0.718877

>  <SCORE.RESTR.CAVITY>
0.718877

>  <SCORE.RESTR.norm>
0.0653525

>  <SCORE.SYSTEM>
-20.5232

>  <SCORE.SYSTEM.CONST>
0

>  <SCORE.SYSTEM.DIHEDRAL>
4.84276

>  <SCORE.SYSTEM.POLAR>
-3.01268

>  <SCORE.SYSTEM.SOLV>
0.162393

>  <SCORE.SYSTEM.VDW>
-5.30823

>  <SCORE.SYSTEM.norm>
-1.86574

>  <SCORE.heavy>
11

>  <SCORE.norm>
-4.42589

$$$$
P129010386
 OpenBabel12072022113D
libRbt.so/2013.1/901 2013/11/27
 17 16  0  0  0  0  0  0  0  0999 V2000
  -31.0486   19.0804  -17.4417 C   0  0  0  0  0  0  0  0  0  0  0  0
  -30.3602   18.4188  -16.2395 C   0  0  0  0  0  0  0  0  0  0  0  0
  -31.4309   17.7632  -15.3593 C   0  0  0  0  0  0  0  0  0  0  0  0
  -29.2857   17.4169  -16.7209 C   0  0  1  0  0  0  0  0  0  0  0  0
  -28.4480   16.7700  -15.5855 C   0  0  0  0  0  0  0  0  0  0  0  0
  -29.0093   16.1386  -14.6896 O   0  0  0  0  0  0  0  0  0  0  0  0
  -27.0996   17.0119  -15.4931 N   0  0  0  0  0  0  0  0  0  0  0  0
  -26.1607   16.2502  -16.1307 C   0  0  0  0  0  0  0  0  0  0  0  0
  -26.3848   15.5664  -17.1240 O   0  0  0  0  0  0  0  0  0  0  0  0
  -24.9362   16.3065  -15.5593 N   0  0  0  0  0  0  0  0  0  0  0  0
  -29.8739   16.3550  -17.6012 N   0  3  0  0  0  0  0  0  0  0  0  0
  -29.1031   15.8904  -18.1273 H   0  0  0  0  0  0  0  0  0  0  0  0
  -30.3962   15.6343  -17.0950 H   0  0  0  0  0  0  0  0  0  0  0  0
  -30.4958   16.7679  -18.3080 H   0  0  0  0  0  0  0  0  0  0  0  0
  -26.8969   18.0031  -15.5618 H   0  0  0  0  0  0  0  0  0  0  0  0
  -24.8218   16.5769  -14.5897 H   0  0  0  0  0  0  0  0  0  0  0  0
  -24.2472   15.6377  -15.8912 H   0  0  0  0  0  0  0  0  0  0  0  0
  1  2  1  0  0  0  0
  2  3  1  0  0  0  0
  4  2  1  1  0  0  0
  4  5  1  0  0  0  0
  4 11  1  0  0  0  0
  5  6  2  0  0  0  0
  5  7  1  0  0  0  0
  7  8  1  0  0  0  0
  7 15  1  0  0  0  0
  8  9  2  0  0  0  0
  8 10  1  0  0  0  0
 10 16  1  0  0  0  0
 10 17  1  0  0  0  0
 11 12  1  0  0  0  0
 11 13  1  0  0  0  0
 11 14  1  0  0  0  0
M  CHG  1  11   1
M  END
>  <CHROM.0>
-60.07518329,52.06881913,-74.38534891,-43.35629730,-56.38906917,-67.07610512
-172.55081146,-58.81816337,-168.99434239

>  <CHROM.1>
175.43505908,57.76890581,162.90424951,-88.89803843,22.76571102,22.16671239
-28.54397845,16.97545045,-16.19294445,-3.03745006,-0.37065151,1.56883115

>  <Name>
P129010386

>  <RI>
0

>  <Rbt.Current_Directory>
/home/fstefaniak/projects/zuza/docking/adenine/4TZX

>  <Rbt.Executable>
rbdock ($Id: //depot/dev/client3/rdock/2013.1/src/exe/rbdock.cxx#4 $)

>  <Rbt.Library>
libRbt.so (2013.1, Build901 2013/11/27)

>  <Rbt.Parameter_File>
/home/fstefaniak/progs/rDock//data/scripts/dock_solv.prm

>  <Rbt.Receptor>
4tzx.prm

>  <SCORE>
-47.2695

>  <SCORE.INTER>
-30.2728

>  <SCORE.INTER.CONST>
1

>  <SCORE.INTER.POLAR>
-5.79329

>  <SCORE.INTER.ROT>
5

>  <SCORE.INTER.SOLV>
22.5784

>  <SCORE.INTER.VDW>
-15.3304

>  <SCORE.INTER.norm>
-2.75207

>  <SCORE.INTRA>
2.75052

>  <SCORE.INTRA.DIHEDRAL>
1.79007

>  <SCORE.INTRA.DIHEDRAL.0>
2.79771

>  <SCORE.INTRA.POLAR>
0.835283

>  <SCORE.INTRA.POLAR.0>
-0.835283

>  <SCORE.INTRA.REPUL>
0

>  <SCORE.INTRA.REPUL.0>
0

>  <SCORE.INTRA.SOLV>
-2.144

>  <SCORE.INTRA.SOLV.lig_0>
-33.3433

>  <SCORE.INTRA.VDW>
0.0875184

>  <SCORE.INTRA.VDW.0>
-0.69693

>  <SCORE.INTRA.norm>
0.250047

>  <SCORE.RESTR>
0

>  <SCORE.RESTR.CAVITY>
0

>  <SCORE.RESTR.norm>
0

>  <SCORE.SYSTEM>
-19.7472

>  <SCORE.SYSTEM.CONST>
0

>  <SCORE.SYSTEM.DIHEDRAL>
5.64732

>  <SCORE.SYSTEM.POLAR>
-3.0337

>  <SCORE.SYSTEM.SOLV>
0.23425

>  <SCORE.SYSTEM.VDW>
-5.01299

>  <SCORE.SYSTEM.norm>
-1.7952

>  <SCORE.heavy>
11

>  <SCORE.norm>
-4.29723

$$$$
P129010386
 OpenBabel12072022113D
libRbt.so/2013.1/901 2013/11/27
 17 16  0  0  0  0  0  0  0  0999 V2000
  -26.8623   11.6857  -15.0657 C   0  0  0  0  0  0  0  0  0  0  0  0
  -25.8658   12.8176  -15.3535 C   0  0  0  0  0  0  0  0  0  0  0  0
  -24.4580   12.2189  -15.4568 C   0  0  0  0  0  0  0  0  0  0  0  0
  -26.2829   13.5888  -16.6268 C   0  0  1  0  0  0  0  0  0  0  0  0
  -27.7869   13.9670  -16.6917 C   0  0  0  0  0  0  0  0  0  0  0  0
  -28.4436   13.7084  -17.7007 O   0  0  0  0  0  0  0  0  0  0  0  0
  -28.3594   14.7123  -15.6907 N   0  0  0  0  0  0  0  0  0  0  0  0
  -29.0759   15.8520  -15.9271 C   0  0  0  0  0  0  0  0  0  0  0  0
  -28.6761   16.7897  -16.6093 O   0  0  0  0  0  0  0  0  0  0  0  0
  -30.2878   15.8663  -15.3271 N   0  0  0  0  0  0  0  0  0  0  0  0
  -25.4324   14.8051  -16.8407 N   0  3  0  0  0  0  0  0  0  0  0  0
  -24.4405   14.5620  -16.6316 H   0  0  0  0  0  0  0  0  0  0  0  0
  -25.4760   15.1839  -17.7910 H   0  0  0  0  0  0  0  0  0  0  0  0
  -25.6895   15.5524  -16.1832 H   0  0  0  0  0  0  0  0  0  0  0  0
  -28.8034   14.1201  -14.9975 H   0  0  0  0  0  0  0  0  0  0  0  0
  -30.6820   16.7250  -14.9618 H   0  0  0  0  0  0  0  0  0  0  0  0
  -30.9760   15.2043  -15.6740 H   0  0  0  0  0  0  0  0  0  0  0  0
  1  2  1  0  0  0  0
  2  3  1  0  0  0  0
  4  2  1  1  0  0  0
  4  5  1  0  0  0  0
  4 11  1  0  0  0  0
  5  6  2  0  0  0  0
  5  7  1  0  0  0  0
  7  8  1  0  0  0  0
  7 15  1  0  0  0  0
  8  9  2  0  0  0  0
  8 10  1  0  0  0  0
 10 16  1  0  0  0  0
 10 17  1  0  0  0  0
 11 12  1  0  0  0  0
 11 13  1  0  0  0  0
 11 14  1  0  0  0  0
M  CHG  1  11   1
M  END
>  <CHROM.0>
-59.77823661,-57.78000253,-66.19986557,173.16030665,56.72568152,-174.71899686
-67.73694178,-61.28436882,-168.14664829

>  <CHROM.1>
46.53105666,-129.94927444,41.69032128,127.73504216,-51.30976531,144.82580266
-27.41912447,14.21409093,-16.12597616,0.66057792,-0.27249084,2.69881280

>  <Name>
P129010386

>  <RI>
0

>  <Rbt.Current_Directory>
/home/fstefaniak/projects/zuza/docking/adenine/4TZX

>  <Rbt.Executable>
rbdock ($Id: //depot/dev/client3/rdock/2013.1/src/exe/rbdock.cxx#4 $)

>  <Rbt.Library>
libRbt.so (2013.1, Build901 2013/11/27)

>  <Rbt.Parameter_File>
/home/fstefaniak/progs/rDock//data/scripts/dock_solv.prm

>  <Rbt.Receptor>
4tzx.prm

>  <SCORE>
-46.7922

>  <SCORE.INTER>
-30.6997

>  <SCORE.INTER.CONST>
1

>  <SCORE.INTER.POLAR>
-5.11405

>  <SCORE.INTER.ROT>
5

>  <SCORE.INTER.SOLV>
17.716

>  <SCORE.INTER.VDW>
-16.2583

>  <SCORE.INTER.norm>
-2.79089

>  <SCORE.INTRA>
1.61943

>  <SCORE.INTRA.DIHEDRAL>
0.898163

>  <SCORE.INTRA.DIHEDRAL.0>
2.79771

>  <SCORE.INTRA.POLAR>
0.835283

>  <SCORE.INTRA.POLAR.0>
-0.835283

>  <SCORE.INTRA.REPUL>
0

>  <SCORE.INTRA.REPUL.0>
0

>  <SCORE.INTRA.SOLV>
-2.66747

>  <SCORE.INTRA.SOLV.lig_0>
-33.3433

>  <SCORE.INTRA.VDW>
-0.335876

>  <SCORE.INTRA.VDW.0>
-0.69693

>  <SCORE.INTRA.norm>
0.147221

>  <SCORE.RESTR>
0.0165042

>  <SCORE.RESTR.CAVITY>
0.0165042

>  <SCORE.RESTR.norm>
0.00150039

>  <SCORE.SYSTEM>
-17.7284

>  <SCORE.SYSTEM.CONST>
0

>  <SCORE.SYSTEM.DIHEDRAL>
3.61091

>  <SCORE.SYSTEM.POLAR>
-2.46118

>  <SCORE.SYSTEM.SOLV>
-0.327686

>  <SCORE.SYSTEM.VDW>
-4.70938

>  <SCORE.SYSTEM.norm>
-1.61167

>  <SCORE.heavy>
11

>  <SCORE.norm>
-4.25383

$$$$
P129020650
 OpenBabel12072022113D
libRbt.so/2013.1/901 2013/11/27
 14 14  0  0  0  0  0  0  0  0999 V2000
  -30.3382   18.5615  -18.3588 C   0  0  0  0  0  0  0  0  0  0  0  0
  -30.6449   17.5784  -17.2295 C   0  0  1  0  0  0  0  0  0  0  0  0
  -29.7822   16.3144  -17.3487 C   0  0  0  0  0  0  0  0  0  0  0  0
  -28.9065   16.3080  -16.1288 N   0  3  2  0  0  0  0  0  0  0  0  0
  -29.5227   15.8433  -15.4053 H   0  0  0  0  0  0  0  0  0  0  0  0
  -28.8913   17.7215  -15.5971 C   0  0  0  0  0  0  0  0  0  0  0  0
  -30.3075   18.1743  -15.8628 C   0  0  2  0  0  0  0  0  0  0  0  0
  -31.1299   17.5011  -14.7578 C   0  0  0  0  0  0  0  0  0  0  0  0
  -32.0112   18.2543  -14.2334 O   0  0  0  0  0  0  0  0  0  0  0  0
  -30.8429   16.3036  -14.5311 O   0  5  0  0  0  0  0  0  0  0  0  0
  -27.6194   15.5725  -16.2318 C   0  0  0  0  0  0  0  0  0  0  0  0
  -27.8226   14.1271  -16.7003 C   0  0  0  0  0  0  0  0  0  0  0  0
  -26.7165   13.7036  -17.4947 O   0  0  0  0  0  0  0  0  0  0  0  0
  -26.6621   14.3102  -18.2565 H   0  0  0  0  0  0  0  0  0  0  0  0
  2  3  1  0  0  0  0
  2  7  1  0  0  0  0
  2  1  1  6  0  0  0
  3  4  1  0  0  0  0
  4  5  1  1  0  0  0
  4  6  1  0  0  0  0
  4 11  1  0  0  0  0
  6  7  1  0  0  0  0
  7  8  1  1  0  0  0
  8  9  2  0  0  0  0
  8 10  1  0  0  0  0
 11 12  1  0  0  0  0
 12 13  1  0  0  0  0
 13 14  1  0  0  0  0
M  CHG  2   4   1  10  -1
M  END
>  <CHROM.0>
-59.67583085,-72.95939565,-61.96788582,-43.29062148,-58.07380118,-63.92219459
-67.92341405,-57.99759442,-168.40982406

>  <CHROM.1>
-53.74848736,-110.67777695,146.77745740,-59.34431846,-29.55246841,16.62538694
-16.21205343,-3.12011472,-0.80367535,2.05079058

>  <Name>
P129020650

>  <RI>
0

>  <Rbt.Current_Directory>
/home/fstefaniak/projects/zuza/docking/adenine/4TZX

>  <Rbt.Executable>
rbdock ($Id: //depot/dev/client3/rdock/2013.1/src/exe/rbdock.cxx#4 $)

>  <Rbt.Library>
libRbt.so (2013.1, Build901 2013/11/27)

>  <Rbt.Parameter_File>
/home/fstefaniak/progs/rDock//data/scripts/dock_solv.prm

>  <Rbt.Receptor>
4tzx.prm

>  <SCORE>
-39.493

>  <SCORE.INTER>
-19.663

>  <SCORE.INTER.CONST>
1

>  <SCORE.INTER.POLAR>
-3.1288

>  <SCORE.INTER.ROT>
3

>  <SCORE.INTER.SOLV>
21.9578

>  <SCORE.INTER.VDW>
-15.5986

>  <SCORE.INTER.norm>
-1.63858

>  <SCORE.INTRA>
1.06861

>  <SCORE.INTRA.DIHEDRAL>
2.05057

>  <SCORE.INTRA.DIHEDRAL.0>
2.26627

>  <SCORE.INTRA.POLAR>
-0.000756587

>  <SCORE.INTRA.POLAR.0>
-0.510446

>  <SCORE.INTRA.REPUL>
0

>  <SCORE.INTRA.REPUL.0>
0

>  <SCORE.INTRA.SOLV>
-1.14088

>  <SCORE.INTRA.SOLV.lig_0>
-40.4801

>  <SCORE.INTRA.VDW>
0.616338

>  <SCORE.INTRA.VDW.0>
1.46148

>  <SCORE.INTRA.norm>
0.0890509

>  <SCORE.RESTR>
0

>  <SCORE.RESTR.CAVITY>
0

>  <SCORE.RESTR.norm>
0

>  <SCORE.SYSTEM>
-20.8986

>  <SCORE.SYSTEM.CONST>
0

>  <SCORE.SYSTEM.DIHEDRAL>
5.15655

>  <SCORE.SYSTEM.POLAR>
-3.05714

>  <SCORE.SYSTEM.SOLV>
0.17695

>  <SCORE.SYSTEM.VDW>
-5.51976

>  <SCORE.SYSTEM.norm>
-1.74155

>  <SCORE.heavy>
12

>  <SCORE.norm>
-3.29108

$$$$
P129020650
 OpenBabel12072022113D
libRbt.so/2013.1/901 2013/11/27
 14 14  0  0  0  0  0  0  0  0999 V2000
  -30.3331   18.5344  -18.4016 C   0  0  0  0  0  0  0  0  0  0  0  0
  -30.6488   17.5645  -17.2633 C   0  0  1  0  0  0  0  0  0  0  0  0
  -29.7941   16.2937  -17.3681 C   0  0  0  0  0  0  0  0  0  0  0  0
  -28.9213   16.2936  -16.1462 N   0  3  2  0  0  0  0  0  0  0  0  0
  -29.5421   15.8402  -15.4196 H   0  0  0  0  0  0  0  0  0  0  0  0
  -28.8979   17.7122  -15.6284 C   0  0  0  0  0  0  0  0  0  0  0  0
  -30.3105   18.1716  -15.9019 C   0  0  2  0  0  0  0  0  0  0  0  0
  -31.1398   17.5148  -14.7922 C   0  0  0  0  0  0  0  0  0  0  0  0
  -30.8168   16.3089  -14.5461 O   0  0  0  0  0  0  0  0  0  0  0  0
  -32.0052   18.2498  -14.2645 O   0  5  0  0  0  0  0  0  0  0  0  0
  -27.6388   15.5487  -16.2390 C   0  0  0  0  0  0  0  0  0  0  0  0
  -27.8466   14.1114  -16.7298 C   0  0  0  0  0  0  0  0  0  0  0  0
  -26.7393   13.6948  -17.5262 O   0  0  0  0  0  0  0  0  0  0  0  0
  -26.6830   14.3089  -18.2819 H   0  0  0  0  0  0  0  0  0  0  0  0
  2  3  1  0  0  0  0
  2  7  1  0  0  0  0
  2  1  1  6  0  0  0
  3  4  1  0  0  0  0
  4  5  1  1  0  0  0
  4  6  1  0  0  0  0
  4 11  1  0  0  0  0
  6  7  1  0  0  0  0
  7  8  1  1  0  0  0
  8  9  2  0  0  0  0
  8 10  1  0  0  0  0
 11 12  1  0  0  0  0
 12 13  1  0  0  0  0
 13 14  1  0  0  0  0
M  CHG  2   4   1  10  -1
M  END
>  <CHROM.0>
-59.28562983,-69.96409011,-64.27907570,-43.58465556,-56.08797344,-63.55158547
-64.10892754,-58.30682615,-167.12907870

>  <CHROM.1>
-52.21673541,69.91685747,146.05738809,-59.71189016,-29.55882836,16.61517236
-16.23951611,-3.12767602,-0.80848665,2.03879465

>  <Name>
P129020650

>  <RI>
0

>  <Rbt.Current_Directory>
/home/fstefaniak/projects/zuza/docking/adenine/4TZX

>  <Rbt.Executable>
rbdock ($Id: //depot/dev/client3/rdock/2013.1/src/exe/rbdock.cxx#4 $)

>  <Rbt.Library>
libRbt.so (2013.1, Build901 2013/11/27)

>  <Rbt.Parameter_File>
/home/fstefaniak/progs/rDock//data/scripts/dock_solv.prm

>  <Rbt.Receptor>
4tzx.prm

>  <SCORE>
-39.2789

>  <SCORE.INTER>
-19.8631

>  <SCORE.INTER.CONST>
1

>  <SCORE.INTER.POLAR>
-3.19308

>  <SCORE.INTER.ROT>
3

>  <SCORE.INTER.SOLV>
21.9044

>  <SCORE.INTER.VDW>
-15.5

>  <SCORE.INTER.norm>
-1.65526

>  <SCORE.INTRA>
1.52807

>  <SCORE.INTRA.DIHEDRAL>
2.18589

>  <SCORE.INTRA.DIHEDRAL.0>
2.26627

>  <SCORE.INTRA.POLAR>
-0.0296474

>  <SCORE.INTRA.POLAR.0>
-0.510446

>  <SCORE.INTRA.REPUL>
0

>  <SCORE.INTRA.REPUL.0>
0

>  <SCORE.INTRA.SOLV>
-1.02401

>  <SCORE.INTRA.SOLV.lig_0>
-40.4801

>  <SCORE.INTRA.VDW>
1.04794

>  <SCORE.INTRA.VDW.0>
1.46148

>  <SCORE.INTRA.norm>
0.127339

>  <SCORE.RESTR>
0

>  <SCORE.RESTR.CAVITY>
0

>  <SCORE.RESTR.norm>
0

>  <SCORE.SYSTEM>
-20.9439

>  <SCORE.SYSTEM.CONST>
0

>  <SCORE.SYSTEM.DIHEDRAL>
4.83231

>  <SCORE.SYSTEM.POLAR>
-3.05472

>  <SCORE.SYSTEM.SOLV>
0.188454

>  <SCORE.SYSTEM.VDW>
-5.45379

>  <SCORE.SYSTEM.norm>
-1.74533

>  <SCORE.heavy>
12

>  <SCORE.norm>
-3.27325

$$$$
P129020650
 OpenBabel12072022113D
libRbt.so/2013.1/901 2013/11/27
 14 14  0  0  0  0  0  0  0  0999 V2000
  -24.7275   16.2789  -17.3067 C   0  0  0  0  0  0  0  0  0  0  0  0
  -25.3519   15.3217  -16.2919 C   0  0  1  0  0  0  0  0  0  0  0  0
  -26.7737   15.7637  -15.9187 C   0  0  0  0  0  0  0  0  0  0  0  0
  -27.6773   14.6688  -16.4083 N   0  3  2  0  0  0  0  0  0  0  0  0
  -27.6596   13.9794  -15.6061 H   0  0  0  0  0  0  0  0  0  0  0  0
  -26.8984   13.8925  -17.4435 C   0  0  0  0  0  0  0  0  0  0  0  0
  -25.5014   13.9144  -16.8697 C   0  0  2  0  0  0  0  0  0  0  0  0
  -25.5396   12.8679  -15.7500 C   0  0  0  0  0  0  0  0  0  0  0  0
  -25.3168   11.6781  -16.1424 O   0  0  0  0  0  0  0  0  0  0  0  0
  -25.7636   13.3186  -14.6035 O   0  5  0  0  0  0  0  0  0  0  0  0
  -29.0830   15.0447  -16.7097 C   0  0  0  0  0  0  0  0  0  0  0  0
  -29.5239   16.2855  -15.9248 C   0  0  0  0  0  0  0  0  0  0  0  0
  -30.6715   15.9884  -15.1320 O   0  0  0  0  0  0  0  0  0  0  0  0
  -31.3823   15.7234  -15.7451 H   0  0  0  0  0  0  0  0  0  0  0  0
  2  3  1  0  0  0  0
  2  7  1  0  0  0  0
  2  1  1  6  0  0  0
  3  4  1  0  0  0  0
  4  5  1  1  0  0  0
  4  6  1  0  0  0  0
  4 11  1  0  0  0  0
  6  7  1  0  0  0  0
  7  8  1  1  0  0  0
  8  9  2  0  0  0  0
  8 10  1  0  0  0  0
 11 12  1  0  0  0  0
 12 13  1  0  0  0  0
 13 14  1  0  0  0  0
M  CHG  2   4   1  10  -1
M  END
>  <CHROM.0>
-53.23450184,-63.01810060,-65.82283422,-43.53779689,-56.87547987,-65.34331806
-67.70235166,-61.09560722,-169.75531558

>  <CHROM.1>
-24.73455052,-162.82137776,-122.39833774,-61.02717338,-26.96505889,14.58627098
-16.17831803,-0.45535281,0.24918580,-0.30954254

>  <Name>
P129020650

>  <RI>
0

>  <Rbt.Current_Directory>
/home/fstefaniak/projects/zuza/docking/adenine/4TZX

>  <Rbt.Executable>
rbdock ($Id: //depot/dev/client3/rdock/2013.1/src/exe/rbdock.cxx#4 $)

>  <Rbt.Library>
libRbt.so (2013.1, Build901 2013/11/27)

>  <Rbt.Parameter_File>
/home/fstefaniak/progs/rDock//data/scripts/dock_solv.prm

>  <Rbt.Receptor>
4tzx.prm

>  <SCORE>
-34.7477

>  <SCORE.INTER>
-19.0728

>  <SCORE.INTER.CONST>
1

>  <SCORE.INTER.POLAR>
-3.18933

>  <SCORE.INTER.ROT>
3

>  <SCORE.INTER.SOLV>
15.418

>  <SCORE.INTER.VDW>
-12.8235

>  <SCORE.INTER.norm>
-1.5894

>  <SCORE.INTRA>
5.36344

>  <SCORE.INTRA.DIHEDRAL>
6.16195

>  <SCORE.INTRA.DIHEDRAL.0>
2.26627

>  <SCORE.INTRA.POLAR>
0.510446

>  <SCORE.INTRA.POLAR.0>
-0.510446

>  <SCORE.INTRA.REPUL>
0

>  <SCORE.INTRA.REPUL.0>
0

>  <SCORE.INTRA.SOLV>
-1.81577

>  <SCORE.INTRA.SOLV.lig_0>
-40.4801

>  <SCORE.INTRA.VDW>
1.45484

>  <SCORE.INTRA.VDW.0>
1.46148

>  <SCORE.INTRA.norm>
0.446954

>  <SCORE.RESTR>
0

>  <SCORE.RESTR.CAVITY>
0

>  <SCORE.RESTR.norm>
0

>  <SCORE.SYSTEM>
-21.0383

>  <SCORE.SYSTEM.CONST>
0

>  <SCORE.SYSTEM.DIHEDRAL>
4.66131

>  <SCORE.SYSTEM.POLAR>
-3.08089

>  <SCORE.SYSTEM.SOLV>
0.185

>  <SCORE.SYSTEM.VDW>
-5.37134

>  <SCORE.SYSTEM.norm>
-1.75319

>  <SCORE.heavy>
12

>  <SCORE.norm>
-2.89564

$$$$
P129061958
 OpenBabel12072022113D
libRbt.so/2013.1/901 2013/11/27
 14 14  0  0  0  0  0  0  0  0999 V2000
  -29.6384   17.0880  -17.1985 C   0  0  0  0  0  0  0  0  0  0  0  0
  -29.0791   16.4245  -15.9344 C   0  0  2  0  0  0  0  0  0  0  0  0
  -28.6392   17.4528  -14.8607 C   0  0  0  0  0  0  0  0  0  0  0  0
  -29.4422   17.3967  -13.6333 N   0  0  0  0  0  0  0  0  0  0  0  0
  -28.0054   15.4595  -16.2532 N   0  0  0  0  0  0  0  0  0  0  0  0
  -28.3946   14.0598  -16.3873 C   0  0  0  0  0  0  0  0  0  0  0  0
  -27.3583   13.2464  -17.1377 C   0  0  0  0  0  0  0  0  0  0  0  0
  -26.0305   13.4566  -16.4517 C   0  0  0  0  0  0  0  0  0  0  0  0
  -25.7489   14.8613  -16.3240 N   0  0  0  0  0  0  0  0  0  0  0  0
  -26.6816   15.8304  -16.1126 C   0  0  0  0  0  0  0  0  0  0  0  0
  -26.3016   16.9618  -15.8257 O   0  0  0  0  0  0  0  0  0  0  0  0
  -29.6971   18.3469  -13.3625 H   0  0  0  0  0  0  0  0  0  0  0  0
  -28.8518   17.0506  -12.8769 H   0  0  0  0  0  0  0  0  0  0  0  0
  -24.8013   15.1690  -16.1454 H   0  0  0  0  0  0  0  0  0  0  0  0
  2  3  1  0  0  0  0
  2  5  1  0  0  0  0
  2  1  1  6  0  0  0
  3  4  1  0  0  0  0
  4 12  1  0  0  0  0
  4 13  1  0  0  0  0
  5  6  1  0  0  0  0
  5 10  1  0  0  0  0
  6  7  1  0  0  0  0
  7  8  1  0  0  0  0
  8  9  1  0  0  0  0
  9 10  1  0  0  0  0
  9 14  1  0  0  0  0
 10 11  2  0  0  0  0
M  END
>  <CHROM.0>
-59.98336364,-61.08227833,-65.27989504,-42.84523247,-176.88317713,-62.77312797
-66.83977608,-54.50093186,-168.89758566

>  <CHROM.1>
114.59882623,-95.18562839,-133.89662637,-27.75597951,15.69932890,-15.97933169
2.18314569,-0.15793604,0.56401376

>  <Name>
P129061958

>  <RI>
0

>  <Rbt.Current_Directory>
/home/fstefaniak/projects/zuza/docking/adenine/4TZX

>  <Rbt.Executable>
rbdock ($Id: //depot/dev/client3/rdock/2013.1/src/exe/rbdock.cxx#4 $)

>  <Rbt.Library>
libRbt.so (2013.1, Build901 2013/11/27)

>  <Rbt.Parameter_File>
/home/fstefaniak/progs/rDock//data/scripts/dock_solv.prm

>  <Rbt.Receptor>
4tzx.prm

>  <SCORE>
-43.244

>  <SCORE.INTER>
-27.2349

>  <SCORE.INTER.CONST>
1

>  <SCORE.INTER.POLAR>
-3.87871

>  <SCORE.INTER.ROT>
3

>  <SCORE.INTER.SOLV>
10.9071

>  <SCORE.INTER.VDW>
-14.4633

>  <SCORE.INTER.norm>
-2.4759

>  <SCORE.INTRA>
5.27266

>  <SCORE.INTRA.DIHEDRAL>
6.07976

>  <SCORE.INTRA.DIHEDRAL.0>
2.71517

>  <SCORE.INTRA.POLAR>
0

>  <SCORE.INTRA.POLAR.0>
0

>  <SCORE.INTRA.REPUL>
0

>  <SCORE.INTRA.REPUL.0>
0

>  <SCORE.INTRA.SOLV>
0.176951

>  <SCORE.INTRA.SOLV.lig_0>
-15.1328

>  <SCORE.INTRA.VDW>
2.1443

>  <SCORE.INTRA.VDW.0>
-0.00798024

>  <SCORE.INTRA.norm>
0.479332

>  <SCORE.RESTR>
0

>  <SCORE.RESTR.CAVITY>
0

>  <SCORE.RESTR.norm>
0

>  <SCORE.SYSTEM>
-21.2818

>  <SCORE.SYSTEM.CONST>
0

>  <SCORE.SYSTEM.DIHEDRAL>
4.54504

>  <SCORE.SYSTEM.POLAR>
-3.06567

>  <SCORE.SYSTEM.SOLV>
0.00585882

>  <SCORE.SYSTEM.VDW>
-5.48594

>  <SCORE.SYSTEM.norm>
-1.93471

>  <SCORE.heavy>
11

>  <SCORE.norm>
-3.93127

$$$$
P129061958
 OpenBabel12072022113D
libRbt.so/2013.1/901 2013/11/27
 14 14  0  0  0  0  0  0  0  0999 V2000
  -29.6540   17.0647  -17.2249 C   0  0  0  0  0  0  0  0  0  0  0  0
  -29.0928   16.4126  -15.9557 C   0  0  2  0  0  0  0  0  0  0  0  0
  -28.6597   17.4504  -14.8883 C   0  0  0  0  0  0  0  0  0  0  0  0
  -29.4465   17.3802  -13.6512 N   0  0  0  0  0  0  0  0  0  0  0  0
  -28.0137   15.4511  -16.2667 N   0  0  0  0  0  0  0  0  0  0  0  0
  -28.3939   14.0474  -16.3832 C   0  0  0  0  0  0  0  0  0  0  0  0
  -27.3546   13.2323  -17.1274 C   0  0  0  0  0  0  0  0  0  0  0  0
  -26.0260   13.4593  -16.4482 C   0  0  0  0  0  0  0  0  0  0  0  0
  -25.7535   14.8672  -16.3379 N   0  0  0  0  0  0  0  0  0  0  0  0
  -26.6921   15.8325  -16.1348 C   0  0  0  0  0  0  0  0  0  0  0  0
  -26.3187   16.9697  -15.8623 O   0  0  0  0  0  0  0  0  0  0  0  0
  -29.6731   18.3286  -13.3504 H   0  0  0  0  0  0  0  0  0  0  0  0
  -28.8545   16.9983  -12.9134 H   0  0  0  0  0  0  0  0  0  0  0  0
  -24.8074   15.1833  -16.1660 H   0  0  0  0  0  0  0  0  0  0  0  0
  2  3  1  0  0  0  0
  2  5  1  0  0  0  0
  2  1  1  6  0  0  0
  3  4  1  0  0  0  0
  4 12  1  0  0  0  0
  4 13  1  0  0  0  0
  5  6  1  0  0  0  0
  5 10  1  0  0  0  0
  6  7  1  0  0  0  0
  7  8  1  0  0  0  0
  8  9  1  0  0  0  0
  9 10  1  0  0  0  0
  9 14  1  0  0  0  0
 10 11  2  0  0  0  0
M  END
>  <CHROM.0>
-57.44066066,-61.14158998,-175.09568563,-42.12997542,-175.75398127,-64.11927646
-59.30441467,179.31876890,-168.37180077

>  <CHROM.1>
115.75464234,-95.58085773,-136.94609651,-27.76362936,15.69269072,-15.99423130
2.18747557,-0.15157107,0.55551178

>  <Name>
P129061958

>  <RI>
0

>  <Rbt.Current_Directory>
/home/fstefaniak/projects/zuza/docking/adenine/4TZX

>  <Rbt.Executable>
rbdock ($Id: //depot/dev/client3/rdock/2013.1/src/exe/rbdock.cxx#4 $)

>  <Rbt.Library>
libRbt.so (2013.1, Build901 2013/11/27)

>  <Rbt.Parameter_File>
/home/fstefaniak/progs/rDock//data/scripts/dock_solv.prm

>  <Rbt.Receptor>
4tzx.prm

>  <SCORE>
-40.65

>  <SCORE.INTER>
-27.1812

>  <SCORE.INTER.CONST>
1

>  <SCORE.INTER.POLAR>
-3.86381

>  <SCORE.INTER.ROT>
3

>  <SCORE.INTER.SOLV>
10.9099

>  <SCORE.INTER.VDW>
-14.4781

>  <SCORE.INTER.norm>
-2.47102

>  <SCORE.INTRA>
5.16342

>  <SCORE.INTRA.DIHEDRAL>
6.00389

>  <SCORE.INTRA.DIHEDRAL.0>
2.71517

>  <SCORE.INTRA.POLAR>
0

>  <SCORE.INTRA.POLAR.0>
0

>  <SCORE.INTRA.REPUL>
0

>  <SCORE.INTRA.REPUL.0>
0

>  <SCORE.INTRA.SOLV>
0.185558

>  <SCORE.INTRA.SOLV.lig_0>
-15.1328

>  <SCORE.INTRA.VDW>
2.0687

>  <SCORE.INTRA.VDW.0>
-0.00798024

>  <SCORE.INTRA.norm>
0.469402

>  <SCORE.RESTR>
0

>  <SCORE.RESTR.CAVITY>
0

>  <SCORE.RESTR.norm>
0

>  <SCORE.SYSTEM>
-18.6322

>  <SCORE.SYSTEM.CONST>
0

>  <SCORE.SYSTEM.DIHEDRAL>
4.45021

>  <SCORE.SYSTEM.POLAR>
-2.55496

>  <SCORE.SYSTEM.SOLV>
-0.173872

>  <SCORE.SYSTEM.VDW>
-5.33041

>  <SCORE.SYSTEM.norm>
-1.69384

>  <SCORE.heavy>
11

>  <SCORE.norm>
-3.69546

$$$$
P129061958
 OpenBabel12072022113D
libRbt.so/2013.1/901 2013/11/27
 14 14  0  0  0  0  0  0  0  0999 V2000
  -29.2595   17.3563  -14.3952 C   0  0  0  0  0  0  0  0  0  0  0  0
  -30.0244   16.5513  -15.4525 C   0  0  2  0  0  0  0  0  0  0  0  0
  -29.2869   15.2522  -15.8679 C   0  0  0  0  0  0  0  0  0  0  0  0
  -27.8796   15.4673  -16.2254 N   0  0  0  0  0  0  0  0  0  0  0  0
  -30.3833   17.3845  -16.6197 N   0  0  0  0  0  0  0  0  0  0  0  0
  -29.4619   17.3680  -17.7507 C   0  0  0  0  0  0  0  0  0  0  0  0
  -30.1125   17.8642  -19.0270 C   0  0  0  0  0  0  0  0  0  0  0  0
  -30.7111   19.2189  -18.7361 C   0  0  0  0  0  0  0  0  0  0  0  0
  -31.5689   19.1509  -17.5836 N   0  0  0  0  0  0  0  0  0  0  0  0
  -31.3622   18.3527  -16.5000 C   0  0  0  0  0  0  0  0  0  0  0  0
  -32.0521   18.5264  -15.4997 O   0  0  0  0  0  0  0  0  0  0  0  0
  -27.8049   15.5403  -17.2405 H   0  0  0  0  0  0  0  0  0  0  0  0
  -27.3519   14.6306  -15.9763 H   0  0  0  0  0  0  0  0  0  0  0  0
  -32.2494   19.8822  -17.4206 H   0  0  0  0  0  0  0  0  0  0  0  0
  2  3  1  0  0  0  0
  2  5  1  0  0  0  0
  2  1  1  1  0  0  0
  3  4  1  0  0  0  0
  4 12  1  0  0  0  0
  4 13  1  0  0  0  0
  5  6  1  0  0  0  0
  5 10  1  0  0  0  0
  6  7  1  0  0  0  0
  7  8  1  0  0  0  0
  8  9  1  0  0  0  0
  9 10  1  0  0  0  0
  9 14  1  0  0  0  0
 10 11  2  0  0  0  0
M  END
>  <CHROM.0>
-59.56549820,-61.80549456,-62.33896831,-42.44206443,60.03766235,-58.96573538
-67.03334238,-64.06811277,-169.10012120

>  <CHROM.1>
-50.16665969,94.03145456,-97.46213675,-30.17435359,17.49082860,-16.68036390
0.71614376,-0.75124917,1.85851287

>  <Name>
P129061958

>  <RI>
0

>  <Rbt.Current_Directory>
/home/fstefaniak/projects/zuza/docking/adenine/4TZX

>  <Rbt.Executable>
rbdock ($Id: //depot/dev/client3/rdock/2013.1/src/exe/rbdock.cxx#4 $)

>  <Rbt.Library>
libRbt.so (2013.1, Build901 2013/11/27)

>  <Rbt.Parameter_File>
/home/fstefaniak/progs/rDock//data/scripts/dock_solv.prm

>  <Rbt.Receptor>
4tzx.prm

>  <SCORE>
-40.3205

>  <SCORE.INTER>
-23.8561

>  <SCORE.INTER.CONST>
1

>  <SCORE.INTER.POLAR>
-3.16547

>  <SCORE.INTER.ROT>
3

>  <SCORE.INTER.SOLV>
13.3027

>  <SCORE.INTER.VDW>
-15.3867

>  <SCORE.INTER.norm>
-2.16874

>  <SCORE.INTRA>
3.79709

>  <SCORE.INTRA.DIHEDRAL>
2.29413

>  <SCORE.INTRA.DIHEDRAL.0>
2.71517

>  <SCORE.INTRA.POLAR>
0

>  <SCORE.INTRA.POLAR.0>
0

>  <SCORE.INTRA.REPUL>
0

>  <SCORE.INTRA.REPUL.0>
0

>  <SCORE.INTRA.SOLV>
0.306727

>  <SCORE.INTRA.SOLV.lig_0>
-15.1328

>  <SCORE.INTRA.VDW>
2.49667

>  <SCORE.INTRA.VDW.0>
-0.00798024

>  <SCORE.INTRA.norm>
0.34519

>  <SCORE.RESTR>
0

>  <SCORE.RESTR.CAVITY>
0

>  <SCORE.RESTR.norm>
0

>  <SCORE.SYSTEM>
-20.2615

>  <SCORE.SYSTEM.CONST>
0

>  <SCORE.SYSTEM.DIHEDRAL>
4.37017

>  <SCORE.SYSTEM.POLAR>
-3.06176

>  <SCORE.SYSTEM.SOLV>
-0.0279956

>  <SCORE.SYSTEM.VDW>
-4.74917

>  <SCORE.SYSTEM.norm>
-1.84195

>  <SCORE.heavy>
11

>  <SCORE.norm>
-3.6655

$$$$
P129144928
 OpenBabel12072022113D
libRbt.so/2013.1/901 2013/11/27
 17 17  0  0  0  0  0  0  0  0999 V2000
  -31.6241   17.8103  -13.9970 C   0  0  0  0  0  0  0  0  0  0  0  0
  -30.3287   17.7909  -14.6604 N   0  0  0  0  0  0  0  0  0  0  0  0
  -30.3367   17.9806  -16.0679 C   0  0  0  0  0  0  0  0  0  0  0  0
  -30.8366   19.2028  -16.5459 C   0  0  0  0  0  0  0  0  0  0  0  0
  -30.9032   19.4601  -17.9144 C   0  0  0  0  0  0  0  0  0  0  0  0
  -30.4589   18.5032  -18.8198 C   0  0  0  0  0  0  0  0  0  0  0  0
  -29.9388   17.2944  -18.3554 C   0  0  0  0  0  0  0  0  0  0  0  0
  -29.8585   17.0154  -16.9763 C   0  0  0  0  0  0  0  0  0  0  0  0
  -29.2095   15.7176  -16.5538 C   0  0  0  0  0  0  0  0  0  0  0  0
  -29.8723   15.1241  -15.3975 N   0  0  0  0  0  0  0  0  0  0  0  0
  -29.1968   17.8697  -13.8673 C   0  0  0  0  0  0  0  0  0  0  0  0
  -29.2066   17.9750  -12.6447 O   0  0  0  0  0  0  0  0  0  0  0  0
  -28.0047   17.7647  -14.5180 N   0  0  0  0  0  0  0  0  0  0  0  0
  -30.7737   14.7623  -15.7203 H   0  0  0  0  0  0  0  0  0  0  0  0
  -29.3434   14.3127  -15.0866 H   0  0  0  0  0  0  0  0  0  0  0  0
  -27.1898   18.0783  -14.0080 H   0  0  0  0  0  0  0  0  0  0  0  0
  -28.0541   18.0593  -15.4852 H   0  0  0  0  0  0  0  0  0  0  0  0
  1  2  1  0  0  0  0
  2  3  1  0  0  0  0
  2 11  1  0  0  0  0
  3  4  2  0  0  0  0
  3  8  1  0  0  0  0
  4  5  1  0  0  0  0
  5  6  2  0  0  0  0
  6  7  1  0  0  0  0
  7  8  2  0  0  0  0
  8  9  1  0  0  0  0
  9 10  1  0  0  0  0
 10 14  1  0  0  0  0
 10 15  1  0  0  0  0
 11 12  2  0  0  0  0
 11 13  1  0  0  0  0
 13 16  1  0  0  0  0
 13 17  1  0  0  0  0
M  END
>  <CHROM.0>
-58.81757054,-63.35247609,-62.61441549,177.39651597,-56.44925328,56.70440081
-64.24592601,-59.15012000,-168.69255167

>  <CHROM.1>
61.86640068,39.60559019,72.02502995,163.19717647,-29.95175373,17.60826046
-15.76906030,1.02552356,-1.14811755,1.22287933

>  <Name>
P129144928

>  <RI>
0

>  <Rbt.Current_Directory>
/home/fstefaniak/projects/zuza/docking/adenine/4TZX

>  <Rbt.Executable>
rbdock ($Id: //depot/dev/client3/rdock/2013.1/src/exe/rbdock.cxx#4 $)

>  <Rbt.Library>
libRbt.so (2013.1, Build901 2013/11/27)

>  <Rbt.Parameter_File>
/home/fstefaniak/progs/rDock//data/scripts/dock_solv.prm

>  <Rbt.Receptor>
4tzx.prm

>  <SCORE>
-45.3991

>  <SCORE.INTER>
-32.2683

>  <SCORE.INTER.CONST>
1

>  <SCORE.INTER.POLAR>
-3.50882

>  <SCORE.INTER.ROT>
4

>  <SCORE.INTER.SOLV>
15.4309

>  <SCORE.INTER.VDW>
-21.2265

>  <SCORE.INTER.norm>
-2.48218

>  <SCORE.INTRA>
4.5214

>  <SCORE.INTRA.DIHEDRAL>
0.631904

>  <SCORE.INTRA.DIHEDRAL.0>
11.7313

>  <SCORE.INTRA.POLAR>
0.974363

>  <SCORE.INTRA.POLAR.0>
-0.974363

>  <SCORE.INTRA.REPUL>
0

>  <SCORE.INTRA.REPUL.0>
0

>  <SCORE.INTRA.SOLV>
0.0411955

>  <SCORE.INTRA.SOLV.lig_0>
-13.2392

>  <SCORE.INTRA.VDW>
0.872015

>  <SCORE.INTRA.VDW.0>
-2.02501

>  <SCORE.INTRA.norm>
0.3478

>  <SCORE.RESTR>
0

>  <SCORE.RESTR.CAVITY>
0

>  <SCORE.RESTR.norm>
0

>  <SCORE.SYSTEM>
-17.6522

>  <SCORE.SYSTEM.CONST>
0

>  <SCORE.SYSTEM.DIHEDRAL>
3.00078

>  <SCORE.SYSTEM.POLAR>
-2.47757

>  <SCORE.SYSTEM.SOLV>
-0.101831

>  <SCORE.SYSTEM.VDW>
-4.47588

>  <SCORE.SYSTEM.norm>
-1.35786

>  <SCORE.heavy>
13

>  <SCORE.norm>
-3.49224

$$$$
P129144928
 OpenBabel12072022113D
libRbt.so/2013.1/901 2013/11/27
 17 17  0  0  0  0  0  0  0  0999 V2000
  -27.3603   12.1424  -15.2841 C   0  0  0  0  0  0  0  0  0  0  0  0
  -27.6665   12.9203  -16.4756 N   0  0  0  0  0  0  0  0  0  0  0  0
  -28.0393   14.2749  -16.2673 C   0  0  0  0  0  0  0  0  0  0  0  0
  -29.4032   14.5385  -16.0606 C   0  0  0  0  0  0  0  0  0  0  0  0
  -29.8573   15.8432  -15.8734 C   0  0  0  0  0  0  0  0  0  0  0  0
  -28.9511   16.8975  -15.8779 C   0  0  0  0  0  0  0  0  0  0  0  0
  -27.5907   16.6450  -16.0593 C   0  0  0  0  0  0  0  0  0  0  0  0
  -27.1097   15.3335  -16.2463 C   0  0  0  0  0  0  0  0  0  0  0  0
  -25.6152   15.1371  -16.3557 C   0  0  0  0  0  0  0  0  0  0  0  0
  -24.8858   16.3933  -16.2202 N   0  0  0  0  0  0  0  0  0  0  0  0
  -27.3119   12.3870  -17.7029 C   0  0  0  0  0  0  0  0  0  0  0  0
  -26.7390   11.3130  -17.8582 O   0  0  0  0  0  0  0  0  0  0  0  0
  -27.6895   13.1057  -18.7967 N   0  0  0  0  0  0  0  0  0  0  0  0
  -24.9089   16.6494  -15.2294 H   0  0  0  0  0  0  0  0  0  0  0  0
  -23.9056   16.2388  -16.4436 H   0  0  0  0  0  0  0  0  0  0  0  0
  -27.4094   14.0772  -18.8098 H   0  0  0  0  0  0  0  0  0  0  0  0
  -28.6439   12.9230  -19.0804 H   0  0  0  0  0  0  0  0  0  0  0  0
  1  2  1  0  0  0  0
  2  3  1  0  0  0  0
  2 11  1  0  0  0  0
  3  4  2  0  0  0  0
  3  8  1  0  0  0  0
  4  5  1  0  0  0  0
  5  6  2  0  0  0  0
  6  7  1  0  0  0  0
  7  8  2  0  0  0  0
  8  9  1  0  0  0  0
  9 10  1  0  0  0  0
 10 14  1  0  0  0  0
 10 15  1  0  0  0  0
 11 12  2  0  0  0  0
 11 13  1  0  0  0  0
 13 16  1  0  0  0  0
 13 17  1  0  0  0  0
M  END
>  <CHROM.0>
-62.78063339,-173.74966335,-65.69776670,-43.45250526,55.71943960,-61.69350742
-64.27339416,-56.27044686,-168.79997123

>  <CHROM.1>
-88.67320996,-176.32816499,74.58754378,53.47750096,-27.48634547,14.32323824
-16.57710008,1.46117894,-0.10810967,-2.82092240

>  <Name>
P129144928

>  <RI>
0

>  <Rbt.Current_Directory>
/home/fstefaniak/projects/zuza/docking/adenine/4TZX

>  <Rbt.Executable>
rbdock ($Id: //depot/dev/client3/rdock/2013.1/src/exe/rbdock.cxx#4 $)

>  <Rbt.Library>
libRbt.so (2013.1, Build901 2013/11/27)

>  <Rbt.Parameter_File>
/home/fstefaniak/progs/rDock//data/scripts/dock_solv.prm

>  <Rbt.Receptor>
4tzx.prm

>  <SCORE>
-44.2798

>  <SCORE.INTER>
-28.8699

>  <SCORE.INTER.CONST>
1

>  <SCORE.INTER.POLAR>
-3.61254

>  <SCORE.INTER.ROT>
4

>  <SCORE.INTER.SOLV>
12.4088

>  <SCORE.INTER.VDW>
-17.6077

>  <SCORE.INTER.norm>
-2.22076

>  <SCORE.INTRA>
4.29639

>  <SCORE.INTRA.DIHEDRAL>
2.08434

>  <SCORE.INTRA.DIHEDRAL.0>
11.7313

>  <SCORE.INTRA.POLAR>
0.974363

>  <SCORE.INTRA.POLAR.0>
-0.974363

>  <SCORE.INTRA.REPUL>
0

>  <SCORE.INTRA.REPUL.0>
0

>  <SCORE.INTRA.SOLV>
-1.30512

>  <SCORE.INTRA.SOLV.lig_0>
-13.2392

>  <SCORE.INTRA.VDW>
0.593944

>  <SCORE.INTRA.VDW.0>
-2.02501

>  <SCORE.INTRA.norm>
0.330492

>  <SCORE.RESTR>
0.446798

>  <SCORE.RESTR.CAVITY>
0.446798

>  <SCORE.RESTR.norm>
0.0343691

>  <SCORE.SYSTEM>
-20.1531

>  <SCORE.SYSTEM.CONST>
0

>  <SCORE.SYSTEM.DIHEDRAL>
4.52114

>  <SCORE.SYSTEM.POLAR>
-3.0379

>  <SCORE.SYSTEM.SOLV>
-0.0589989

>  <SCORE.SYSTEM.VDW>
-4.79646

>  <SCORE.SYSTEM.norm>
-1.55024

>  <SCORE.heavy>
13

>  <SCORE.norm>
-3.40614

$$$$
P129144928
 OpenBabel12072022113D
libRbt.so/2013.1/901 2013/11/27
 17 17  0  0  0  0  0  0  0  0999 V2000
  -31.6092   17.7471  -13.9352 C   0  0  0  0  0  0  0  0  0  0  0  0
  -30.3182   17.7002  -14.6058 N   0  0  0  0  0  0  0  0  0  0  0  0
  -30.3315   17.8754  -16.0152 C   0  0  0  0  0  0  0  0  0  0  0  0
  -30.7653   19.1195  -16.5012 C   0  0  0  0  0  0  0  0  0  0  0  0
  -30.8328   19.3660  -17.8716 C   0  0  0  0  0  0  0  0  0  0  0  0
  -30.4552   18.3756  -18.7712 C   0  0  0  0  0  0  0  0  0  0  0  0
  -30.0007   17.1435  -18.2992 C   0  0  0  0  0  0  0  0  0  0  0  0
  -29.9207   16.8746  -16.9180 C   0  0  0  0  0  0  0  0  0  0  0  0
  -29.3430   15.5458  -16.4884 C   0  0  0  0  0  0  0  0  0  0  0  0
  -27.8845   15.5659  -16.4587 N   0  0  0  0  0  0  0  0  0  0  0  0
  -29.1805   17.7692  -13.8202 C   0  0  0  0  0  0  0  0  0  0  0  0
  -29.1814   17.8874  -12.5987 O   0  0  0  0  0  0  0  0  0  0  0  0
  -27.9940   17.6385  -14.4766 N   0  0  0  0  0  0  0  0  0  0  0  0
  -27.5774   14.6448  -16.1349 H   0  0  0  0  0  0  0  0  0  0  0  0
  -27.5302   15.6584  -17.4077 H   0  0  0  0  0  0  0  0  0  0  0  0
  -27.3835   18.4443  -14.4579 H   0  0  0  0  0  0  0  0  0  0  0  0
  -28.0869   17.1823  -15.3754 H   0  0  0  0  0  0  0  0  0  0  0  0
  1  2  1  0  0  0  0
  2  3  1  0  0  0  0
  2 11  1  0  0  0  0
  3  4  2  0  0  0  0
  3  8  1  0  0  0  0
  4  5  1  0  0  0  0
  5  6  2  0  0  0  0
  6  7  1  0  0  0  0
  7  8  2  0  0  0  0
  8  9  1  0  0  0  0
  9 10  1  0  0  0  0
 10 14  1  0  0  0  0
 10 15  1  0  0  0  0
 11 12  2  0  0  0  0
 11 13  1  0  0  0  0
 13 16  1  0  0  0  0
 13 17  1  0  0  0  0
M  END
>  <CHROM.0>
-61.93254414,-63.27047260,61.14298435,-42.73834034,57.27794277,-61.56094996
56.90819280,-61.89309113,-168.25410195

>  <CHROM.1>
64.30048951,-94.50373662,178.42132299,115.98396448,-29.77144285,17.54698284
-15.82282484,1.29099873,-0.80385460,1.42659322

>  <Name>
P129144928

>  <RI>
0

>  <Rbt.Current_Directory>
/home/fstefaniak/projects/zuza/docking/adenine/4TZX

>  <Rbt.Executable>
rbdock ($Id: //depot/dev/client3/rdock/2013.1/src/exe/rbdock.cxx#4 $)

>  <Rbt.Library>
libRbt.so (2013.1, Build901 2013/11/27)

>  <Rbt.Parameter_File>
/home/fstefaniak/progs/rDock//data/scripts/dock_solv.prm

>  <Rbt.Receptor>
4tzx.prm

>  <SCORE>
-40.499

>  <SCORE.INTER>
-24.6073

>  <SCORE.INTER.CONST>
1

>  <SCORE.INTER.POLAR>
-2.01512

>  <SCORE.INTER.ROT>
4

>  <SCORE.INTER.SOLV>
14.0785

>  <SCORE.INTER.VDW>
-20.6473

>  <SCORE.INTER.norm>
-1.89287

>  <SCORE.INTRA>
2.41838

>  <SCORE.INTRA.DIHEDRAL>
0.828105

>  <SCORE.INTRA.DIHEDRAL.0>
11.7313

>  <SCORE.INTRA.POLAR>
0.000111197

>  <SCORE.INTRA.POLAR.0>
-0.974363

>  <SCORE.INTRA.REPUL>
0

>  <SCORE.INTRA.REPUL.0>
0

>  <SCORE.INTRA.SOLV>
-0.150667

>  <SCORE.INTRA.SOLV.lig_0>
-13.2392

>  <SCORE.INTRA.VDW>
2.07929

>  <SCORE.INTRA.VDW.0>
-2.02501

>  <SCORE.INTRA.norm>
0.186029

>  <SCORE.RESTR>
0

>  <SCORE.RESTR.CAVITY>
0

>  <SCORE.RESTR.norm>
0

>  <SCORE.SYSTEM>
-18.3101

>  <SCORE.SYSTEM.CONST>
0

>  <SCORE.SYSTEM.DIHEDRAL>
4.24362

>  <SCORE.SYSTEM.POLAR>
-3.02975

>  <SCORE.SYSTEM.SOLV>
-0.149896

>  <SCORE.SYSTEM.VDW>
-3.47212

>  <SCORE.SYSTEM.norm>
-1.40847

>  <SCORE.heavy>
13

>  <SCORE.norm>
-3.11531

$$$$
P129488019
 OpenBabel12072022113D
libRbt.so/2013.1/901 2013/11/27
 17 17  0  0  0  0  0  0  0  0999 V2000
  -24.0641   12.1646  -14.9950 C   0  0  0  0  0  0  0  0  0  0  0  0
  -24.9883   13.3648  -15.1502 C   0  0  0  0  0  0  0  0  0  0  0  0
  -25.4963   13.5682  -16.5932 C   0  0  1  0  0  0  0  0  0  0  0  0
  -26.4931   12.4931  -17.0557 C   0  0  0  0  0  0  0  0  0  0  0  0
  -27.8480   12.6023  -16.3600 C   0  0  0  0  0  0  0  0  0  0  0  0
  -28.4520   13.9953  -16.5180 C   0  0  0  0  0  0  0  0  0  0  0  0
  -27.4865   15.0997  -16.0681 C   0  0  1  0  0  0  0  0  0  0  0  0
  -26.1257   14.9628  -16.7644 C   0  0  0  0  0  0  0  0  0  0  0  0
  -28.0474   16.4175  -16.3390 N   0  0  0  0  0  0  0  0  0  0  0  0
  -29.0095   16.9612  -15.5222 C   0  0  0  0  0  0  0  0  0  0  0  0
  -30.2180   16.8378  -15.6834 O   0  0  0  0  0  0  0  0  0  0  0  0
  -28.4428   17.6707  -14.4702 N   0  0  0  0  0  0  0  0  0  0  0  0
  -27.0818   18.0562  -14.5677 N   0  0  0  0  0  0  0  0  0  0  0  0
  -28.0927   16.7059  -17.3057 H   0  0  0  0  0  0  0  0  0  0  0  0
  -29.0638   18.2952  -13.9633 H   0  0  0  0  0  0  0  0  0  0  0  0
  -26.9080   18.7155  -13.7968 H   0  0  0  0  0  0  0  0  0  0  0  0
  -27.0034   18.6536  -15.3971 H   0  0  0  0  0  0  0  0  0  0  0  0
  1  2  1  0  0  0  0
  3  2  1  1  0  0  0
  3  4  1  0  0  0  0
  3  8  1  0  0  0  0
  4  5  1  0  0  0  0
  5  6  1  0  0  0  0
  6  7  1  0  0  0  0
  7  8  1  0  0  0  0
  7  9  1  6  0  0  0
  9 10  1  0  0  0  0
  9 14  1  0  0  0  0
 10 11  2  0  0  0  0
 10 12  1  0  0  0  0
 12 13  1  0  0  0  0
 12 15  1  0  0  0  0
 13 16  1  0  0  0  0
 13 17  1  0  0  0  0
M  END
>  <CHROM.0>
-59.85334228,-61.80217053,60.23042335,-42.60764975,-174.19270139,-173.98228114
55.10422340,-63.29412755,-169.36853788

>  <CHROM.1>
69.96616937,78.15681565,-91.41097216,17.20744225,169.13578420,-27.22686000
14.99557496,-15.82897727,-0.90946104,-0.33699900,0.40896017

>  <Name>
P129488019

>  <RI>
0

>  <Rbt.Current_Directory>
/home/fstefaniak/projects/zuza/docking/adenine/4TZX

>  <Rbt.Executable>
rbdock ($Id: //depot/dev/client3/rdock/2013.1/src/exe/rbdock.cxx#4 $)

>  <Rbt.Library>
libRbt.so (2013.1, Build901 2013/11/27)

>  <Rbt.Parameter_File>
/home/fstefaniak/progs/rDock//data/scripts/dock_solv.prm

>  <Rbt.Receptor>
4tzx.prm

>  <SCORE>
-48.7934

>  <SCORE.INTER>
-29.4177

>  <SCORE.INTER.CONST>
1

>  <SCORE.INTER.POLAR>
-4.35178

>  <SCORE.INTER.ROT>
5

>  <SCORE.INTER.SOLV>
11.6507

>  <SCORE.INTER.VDW>
-15.9228

>  <SCORE.INTER.norm>
-2.2629

>  <SCORE.INTRA>
-0.305634

>  <SCORE.INTRA.DIHEDRAL>
-0.12814

>  <SCORE.INTRA.DIHEDRAL.0>
2.43994

>  <SCORE.INTRA.POLAR>
0

>  <SCORE.INTRA.POLAR.0>
0

>  <SCORE.INTRA.REPUL>
0

>  <SCORE.INTRA.REPUL.0>
0

>  <SCORE.INTRA.SOLV>
0.600474

>  <SCORE.INTRA.SOLV.lig_0>
-16.3484

>  <SCORE.INTRA.VDW>
-0.541801

>  <SCORE.INTRA.VDW.0>
-0.283051

>  <SCORE.INTRA.norm>
-0.0235103

>  <SCORE.RESTR>
0

>  <SCORE.RESTR.CAVITY>
0

>  <SCORE.RESTR.norm>
0

>  <SCORE.SYSTEM>
-19.0701

>  <SCORE.SYSTEM.CONST>
0

>  <SCORE.SYSTEM.DIHEDRAL>
4.46666

>  <SCORE.SYSTEM.POLAR>
-3.02107

>  <SCORE.SYSTEM.SOLV>
-0.22932

>  <SCORE.SYSTEM.VDW>
-4.0556

>  <SCORE.SYSTEM.norm>
-1.46693

>  <SCORE.heavy>
13

>  <SCORE.norm>
-3.75334

$$$$
P129488019
 OpenBabel12072022113D
libRbt.so/2013.1/901 2013/11/27
 17 17  0  0  0  0  0  0  0  0999 V2000
  -27.6885   11.6672  -18.6194 C   0  0  0  0  0  0  0  0  0  0  0  0
  -27.8399   13.1059  -18.1441 C   0  0  0  0  0  0  0  0  0  0  0  0
  -27.5588   13.2895  -16.6377 C   0  0  1  0  0  0  0  0  0  0  0  0
  -26.0849   13.5840  -16.3146 C   0  0  0  0  0  0  0  0  0  0  0  0
  -25.6471   14.9771  -16.7609 C   0  0  0  0  0  0  0  0  0  0  0  0
  -26.5493   16.0638  -16.1819 C   0  0  0  0  0  0  0  0  0  0  0  0
  -28.0319   15.8061  -16.4812 C   0  0  1  0  0  0  0  0  0  0  0  0
  -28.4484   14.3958  -16.0420 C   0  0  0  0  0  0  0  0  0  0  0  0
  -28.8719   16.7960  -15.8184 N   0  0  0  0  0  0  0  0  0  0  0  0
  -29.7913   17.5340  -16.5244 C   0  0  0  0  0  0  0  0  0  0  0  0
  -29.7420   17.7479  -17.7301 O   0  0  0  0  0  0  0  0  0  0  0  0
  -30.8042   18.0091  -15.7002 N   0  0  0  0  0  0  0  0  0  0  0  0
  -32.0017   18.4768  -16.2983 N   0  0  0  0  0  0  0  0  0  0  0  0
  -28.4841   17.2562  -15.0075 H   0  0  0  0  0  0  0  0  0  0  0  0
  -30.8859   17.5678  -14.7886 H   0  0  0  0  0  0  0  0  0  0  0  0
  -32.6893   17.7159  -16.2113 H   0  0  0  0  0  0  0  0  0  0  0  0
  -31.8319   18.5127  -17.3086 H   0  0  0  0  0  0  0  0  0  0  0  0
  1  2  1  0  0  0  0
  3  2  1  6  0  0  0
  3  4  1  0  0  0  0
  3  8  1  0  0  0  0
  4  5  1  0  0  0  0
  5  6  1  0  0  0  0
  6  7  1  0  0  0  0
  7  8  1  0  0  0  0
  7  9  1  1  0  0  0
  9 10  1  0  0  0  0
  9 14  1  0  0  0  0
 10 11  2  0  0  0  0
 10 12  1  0  0  0  0
 12 13  1  0  0  0  0
 12 15  1  0  0  0  0
 13 16  1  0  0  0  0
 13 17  1  0  0  0  0
M  END
>  <CHROM.0>
-63.44980335,-165.82383828,-65.61660086,-43.09042417,-177.73554079,-61.48018775
-70.49680151,-64.64538890,-169.21232677

>  <CHROM.1>
89.36719582,126.26336671,-22.72283763,-163.53630201,100.13693610,-28.44653223
15.53628549,-16.71773419,0.87708727,0.31140773,-2.69228558

>  <Name>
P129488019

>  <RI>
0

>  <Rbt.Current_Directory>
/home/fstefaniak/projects/zuza/docking/adenine/4TZX

>  <Rbt.Executable>
rbdock ($Id: //depot/dev/client3/rdock/2013.1/src/exe/rbdock.cxx#4 $)

>  <Rbt.Library>
libRbt.so (2013.1, Build901 2013/11/27)

>  <Rbt.Parameter_File>
/home/fstefaniak/progs/rDock//data/scripts/dock_solv.prm

>  <Rbt.Receptor>
4tzx.prm

>  <SCORE>
-47.6447

>  <SCORE.INTER>
-28.5422

>  <SCORE.INTER.CONST>
1

>  <SCORE.INTER.POLAR>
-2.95675

>  <SCORE.INTER.ROT>
5

>  <SCORE.INTER.SOLV>
12.9658

>  <SCORE.INTER.VDW>
-20.4276

>  <SCORE.INTER.norm>
-2.19556

>  <SCORE.INTRA>
1.7759

>  <SCORE.INTRA.DIHEDRAL>
4.50679

>  <SCORE.INTRA.DIHEDRAL.0>
2.43994

>  <SCORE.INTRA.POLAR>
0

>  <SCORE.INTRA.POLAR.0>
0

>  <SCORE.INTRA.REPUL>
0

>  <SCORE.INTRA.REPUL.0>
0

>  <SCORE.INTRA.SOLV>
-0.0893869

>  <SCORE.INTRA.SOLV.lig_0>
-16.3484

>  <SCORE.INTRA.VDW>
-0.432802

>  <SCORE.INTRA.VDW.0>
-0.283051

>  <SCORE.INTRA.norm>
0.136607

>  <SCORE.RESTR>
0

>  <SCORE.RESTR.CAVITY>
0

>  <SCORE.RESTR.norm>
0

>  <SCORE.SYSTEM>
-20.8783

>  <SCORE.SYSTEM.CONST>
0

>  <SCORE.SYSTEM.DIHEDRAL>
5.66727

>  <SCORE.SYSTEM.POLAR>
-3.02627

>  <SCORE.SYSTEM.SOLV>
-0.0609383

>  <SCORE.SYSTEM.VDW>
-5.7001

>  <SCORE.SYSTEM.norm>
-1.60602

>  <SCORE.heavy>
13

>  <SCORE.norm>
-3.66497

$$$$
P129488019
 OpenBabel12072022113D
libRbt.so/2013.1/901 2013/11/27
 17 17  0  0  0  0  0  0  0  0999 V2000
  -27.6963   11.9799  -18.6075 C   0  0  0  0  0  0  0  0  0  0  0  0
  -28.0590   13.2915  -17.9241 C   0  0  0  0  0  0  0  0  0  0  0  0
  -27.4952   13.4165  -16.4929 C   0  0  1  0  0  0  0  0  0  0  0  0
  -25.9813   13.6795  -16.4449 C   0  0  0  0  0  0  0  0  0  0  0  0
  -25.6078   15.0819  -16.9196 C   0  0  0  0  0  0  0  0  0  0  0  0
  -26.3627   16.1588  -16.1446 C   0  0  0  0  0  0  0  0  0  0  0  0
  -27.8801   15.9319  -16.1664 C   0  0  1  0  0  0  0  0  0  0  0  0
  -28.2342   14.5123  -15.7033 C   0  0  0  0  0  0  0  0  0  0  0  0
  -28.5600   16.9081  -15.3243 N   0  0  0  0  0  0  0  0  0  0  0  0
  -29.8309   17.3385  -15.6206 C   0  0  0  0  0  0  0  0  0  0  0  0
  -30.1596   17.8881  -16.6655 O   0  0  0  0  0  0  0  0  0  0  0  0
  -30.7158   17.0653  -14.5844 N   0  0  0  0  0  0  0  0  0  0  0  0
  -31.1671   18.1400  -13.7771 N   0  0  0  0  0  0  0  0  0  0  0  0
  -27.9803   17.5813  -14.8441 H   0  0  0  0  0  0  0  0  0  0  0  0
  -31.3660   16.2999  -14.7388 H   0  0  0  0  0  0  0  0  0  0  0  0
  -30.3392   18.7119  -13.5609 H   0  0  0  0  0  0  0  0  0  0  0  0
  -31.4100   17.7412  -12.8644 H   0  0  0  0  0  0  0  0  0  0  0  0
  1  2  1  0  0  0  0
  3  2  1  6  0  0  0
  3  4  1  0  0  0  0
  3  8  1  0  0  0  0
  4  5  1  0  0  0  0
  5  6  1  0  0  0  0
  6  7  1  0  0  0  0
  7  8  1  0  0  0  0
  7  9  1  1  0  0  0
  9 10  1  0  0  0  0
  9 14  1  0  0  0  0
 10 11  2  0  0  0  0
 10 12  1  0  0  0  0
 12 13  1  0  0  0  0
 12 15  1  0  0  0  0
 13 16  1  0  0  0  0
 13 17  1  0  0  0  0
M  END
>  <CHROM.0>
-60.86595115,-71.45525813,-70.92015459,-42.73707969,-56.87894845,-55.60680861
-169.11698271,58.55197899,-168.56910512

>  <CHROM.1>
73.82580577,149.29117469,-58.88174040,106.61847924,-44.45057010,-28.33751922
15.53183332,-16.15863388,0.96429116,-0.00331934,-2.61414287

>  <Name>
P129488019

>  <RI>
0

>  <Rbt.Current_Directory>
/home/fstefaniak/projects/zuza/docking/adenine/4TZX

>  <Rbt.Executable>
rbdock ($Id: //depot/dev/client3/rdock/2013.1/src/exe/rbdock.cxx#4 $)

>  <Rbt.Library>
libRbt.so (2013.1, Build901 2013/11/27)

>  <Rbt.Parameter_File>
/home/fstefaniak/progs/rDock//data/scripts/dock_solv.prm

>  <Rbt.Receptor>
4tzx.prm

>  <SCORE>
-47.4491

>  <SCORE.INTER>
-28.3245

>  <SCORE.INTER.CONST>
1

>  <SCORE.INTER.POLAR>
-3.59336

>  <SCORE.INTER.ROT>
5

>  <SCORE.INTER.SOLV>
13.4405

>  <SCORE.INTER.VDW>
-18.3186

>  <SCORE.INTER.norm>
-2.1788

>  <SCORE.INTRA>
0.272504

>  <SCORE.INTRA.DIHEDRAL>
1.47039

>  <SCORE.INTRA.DIHEDRAL.0>
2.43994

>  <SCORE.INTRA.POLAR>
0

>  <SCORE.INTRA.POLAR.0>
0

>  <SCORE.INTRA.REPUL>
0

>  <SCORE.INTRA.REPUL.0>
0

>  <SCORE.INTRA.SOLV>
0.0118841

>  <SCORE.INTRA.SOLV.lig_0>
-16.3484

>  <SCORE.INTRA.VDW>
-0.468634

>  <SCORE.INTRA.VDW.0>
-0.283051

>  <SCORE.INTRA.norm>
0.0209619

>  <SCORE.RESTR>
0

>  <SCORE.RESTR.CAVITY>
0

>  <SCORE.RESTR.norm>
0

>  <SCORE.SYSTEM>
-19.3971

>  <SCORE.SYSTEM.CONST>
0

>  <SCORE.SYSTEM.DIHEDRAL>
5.84962

>  <SCORE.SYSTEM.POLAR>
-3.05698

>  <SCORE.SYSTEM.SOLV>
-0.00784987

>  <SCORE.SYSTEM.VDW>
-4.68873

>  <SCORE.SYSTEM.norm>
-1.49209

>  <SCORE.heavy>
13

>  <SCORE.norm>
-3.64993

$$$$
P129531989
 OpenBabel12072022113D
libRbt.so/2013.1/901 2013/11/27
 15 16  0  0  0  0  0  0  0  0999 V2000
  -29.4493   17.2883  -17.6243 C   0  0  0  0  0  0  0  0  0  0  0  0
  -29.2240   16.8479  -16.3181 C   0  0  0  0  0  0  0  0  0  0  0  0
  -29.8873   17.4573  -15.2563 C   0  0  0  0  0  0  0  0  0  0  0  0
  -30.8017   18.4863  -15.5013 C   0  0  0  0  0  0  0  0  0  0  0  0
  -31.0165   18.9375  -16.8033 C   0  0  0  0  0  0  0  0  0  0  0  0
  -30.3366   18.3462  -17.8790 C   0  0  0  0  0  0  0  0  0  0  0  0
  -30.5853   18.8121  -19.2929 C   0  0  0  0  0  0  0  0  0  0  0  0
  -31.8534   18.2797  -19.7994 N   0  0  0  0  0  0  0  0  0  0  0  0
  -32.8346   18.5670  -18.7640 O   0  0  0  0  0  0  0  0  0  0  0  0
  -31.5205   19.1052  -14.5098 O   0  0  0  0  0  0  0  0  0  0  0  0
  -31.4855   18.3489  -13.2942 C   0  0  0  0  0  0  0  0  0  0  0  0
  -30.0697   17.8886  -12.9892 C   0  0  0  0  0  0  0  0  0  0  0  0
  -29.6022   16.9877  -13.9993 O   0  0  0  0  0  0  0  0  0  0  0  0
  -31.8017   17.2576  -19.7777 H   0  0  0  0  0  0  0  0  0  0  0  0
  -33.1219   19.4689  -19.0079 H   0  0  0  0  0  0  0  0  0  0  0  0
  1  2  2  0  0  0  0
  1  6  1  0  0  0  0
  2  3  1  0  0  0  0
  3  4  2  0  0  0  0
  3 13  1  0  0  0  0
  4  5  1  0  0  0  0
  4 10  1  0  0  0  0
  5  6  2  0  0  0  0
  6  7  1  0  0  0  0
  7  8  1  0  0  0  0
  8  9  1  0  0  0  0
  8 14  1  0  0  0  0
  9 15  1  0  0  0  0
 10 11  1  0  0  0  0
 11 12  1  0  0  0  0
 12 13  1  0  0  0  0
M  END
>  <CHROM.0>
-58.98643769,-62.79587525,-66.73399708,-42.85470660,-56.29863381,-56.34023600
-66.09889217,-58.72096528,-169.48990679

>  <CHROM.1>
101.17621285,49.24163123,87.05217573,-30.73149664,18.11783632,-16.31911251
-1.81058149,-0.56210961,1.54814706

>  <Name>
P129531989

>  <RI>
0

>  <Rbt.Current_Directory>
/home/fstefaniak/projects/zuza/docking/adenine/4TZX

>  <Rbt.Executable>
rbdock ($Id: //depot/dev/client3/rdock/2013.1/src/exe/rbdock.cxx#4 $)

>  <Rbt.Library>
libRbt.so (2013.1, Build901 2013/11/27)

>  <Rbt.Parameter_File>
/home/fstefaniak/progs/rDock//data/scripts/dock_solv.prm

>  <Rbt.Receptor>
4tzx.prm

>  <SCORE>
-48.0936

>  <SCORE.INTER>
-28.3315

>  <SCORE.INTER.CONST>
1

>  <SCORE.INTER.POLAR>
-4.51549

>  <SCORE.INTER.ROT>
2

>  <SCORE.INTER.SOLV>
15.4164

>  <SCORE.INTER.VDW>
-13.9082

>  <SCORE.INTER.norm>
-2.17935

>  <SCORE.INTRA>
1.2831

>  <SCORE.INTRA.DIHEDRAL>
-0.476887

>  <SCORE.INTRA.DIHEDRAL.0>
1.58789

>  <SCORE.INTRA.POLAR>
0

>  <SCORE.INTRA.POLAR.0>
0

>  <SCORE.INTRA.REPUL>
0

>  <SCORE.INTRA.REPUL.0>
0

>  <SCORE.INTRA.SOLV>
1.12234

>  <SCORE.INTRA.SOLV.lig_0>
-15.573

>  <SCORE.INTRA.VDW>
0.96037

>  <SCORE.INTRA.VDW.0>
-0.648946

>  <SCORE.INTRA.norm>
0.0986999

>  <SCORE.RESTR>
0

>  <SCORE.RESTR.CAVITY>
0

>  <SCORE.RESTR.norm>
0

>  <SCORE.SYSTEM>
-21.0452

>  <SCORE.SYSTEM.CONST>
0

>  <SCORE.SYSTEM.DIHEDRAL>
4.47642

>  <SCORE.SYSTEM.POLAR>
-3.06199

>  <SCORE.SYSTEM.SOLV>
0.201781

>  <SCORE.SYSTEM.VDW>
-5.38288

>  <SCORE.SYSTEM.norm>
-1.61886

>  <SCORE.heavy>
13

>  <SCORE.norm>
-3.69951

$$$$
P129531989
 OpenBabel12072022113D
libRbt.so/2013.1/901 2013/11/27
 15 16  0  0  0  0  0  0  0  0999 V2000
  -29.4678   17.2493  -17.6538 C   0  0  0  0  0  0  0  0  0  0  0  0
  -29.2406   16.8058  -16.3490 C   0  0  0  0  0  0  0  0  0  0  0  0
  -29.8861   17.4267  -15.2829 C   0  0  0  0  0  0  0  0  0  0  0  0
  -30.7851   18.4704  -15.5220 C   0  0  0  0  0  0  0  0  0  0  0  0
  -31.0017   18.9244  -16.8227 C   0  0  0  0  0  0  0  0  0  0  0  0
  -30.3393   18.3215  -17.9028 C   0  0  0  0  0  0  0  0  0  0  0  0
  -30.5904   18.7908  -19.3152 C   0  0  0  0  0  0  0  0  0  0  0  0
  -31.8701   18.2781  -19.8128 N   0  0  0  0  0  0  0  0  0  0  0  0
  -32.8420   18.5928  -18.7765 O   0  0  0  0  0  0  0  0  0  0  0  0
  -31.4866   19.1016  -14.5257 O   0  0  0  0  0  0  0  0  0  0  0  0
  -31.4553   18.3454  -13.3100 C   0  0  0  0  0  0  0  0  0  0  0  0
  -30.0452   17.8621  -13.0148 C   0  0  0  0  0  0  0  0  0  0  0  0
  -29.5998   16.9530  -14.0276 O   0  0  0  0  0  0  0  0  0  0  0  0
  -31.8377   17.2554  -19.7824 H   0  0  0  0  0  0  0  0  0  0  0  0
  -33.1055   19.5017  -19.0214 H   0  0  0  0  0  0  0  0  0  0  0  0
  1  2  2  0  0  0  0
  1  6  1  0  0  0  0
  2  3  1  0  0  0  0
  3  4  2  0  0  0  0
  3 13  1  0  0  0  0
  4  5  1  0  0  0  0
  4 10  1  0  0  0  0
  5  6  2  0  0  0  0
  6  7  1  0  0  0  0
  7  8  1  0  0  0  0
  8  9  1  0  0  0  0
  8 14  1  0  0  0  0
  9 15  1  0  0  0  0
 10 11  1  0  0  0  0
 11 12  1  0  0  0  0
 12 13  1  0  0  0  0
M  END
>  <CHROM.0>
-59.63268404,59.72344804,-63.43683158,-43.34522358,-54.74854129,-61.28958661
-65.96338283,-60.34696966,-168.41600334

>  <CHROM.1>
101.12839252,49.78256671,86.43462236,-30.72697145,18.10133046,-16.34065140
-1.82002729,-0.57912295,1.54289343

>  <Name>
P129531989

>  <RI>
0

>  <Rbt.Current_Directory>
/home/fstefaniak/projects/zuza/docking/adenine/4TZX

>  <Rbt.Executable>
rbdock ($Id: //depot/dev/client3/rdock/2013.1/src/exe/rbdock.cxx#4 $)

>  <Rbt.Library>
libRbt.so (2013.1, Build901 2013/11/27)

>  <Rbt.Parameter_File>
/home/fstefaniak/progs/rDock//data/scripts/dock_solv.prm

>  <Rbt.Receptor>
4tzx.prm

>  <SCORE>
-47.353

>  <SCORE.INTER>
-28.3033

>  <SCORE.INTER.CONST>
1

>  <SCORE.INTER.POLAR>
-4.50862

>  <SCORE.INTER.ROT>
2

>  <SCORE.INTER.SOLV>
15.4134

>  <SCORE.INTER.VDW>
-13.9113

>  <SCORE.INTER.norm>
-2.17718

>  <SCORE.INTRA>
1.2417

>  <SCORE.INTRA.DIHEDRAL>
-0.49724

>  <SCORE.INTRA.DIHEDRAL.0>
1.58789

>  <SCORE.INTRA.POLAR>
0

>  <SCORE.INTRA.POLAR.0>
0

>  <SCORE.INTRA.REPUL>
0

>  <SCORE.INTRA.REPUL.0>
0

>  <SCORE.INTRA.SOLV>
1.1159

>  <SCORE.INTRA.SOLV.lig_0>
-15.573

>  <SCORE.INTRA.VDW>
0.932369

>  <SCORE.INTRA.VDW.0>
-0.648946

>  <SCORE.INTRA.norm>
0.0955153

>  <SCORE.RESTR>
0

>  <SCORE.RESTR.CAVITY>
0

>  <SCORE.RESTR.norm>
0

>  <SCORE.SYSTEM>
-20.2914

>  <SCORE.SYSTEM.CONST>
0

>  <SCORE.SYSTEM.DIHEDRAL>
4.31035

>  <SCORE.SYSTEM.POLAR>
-3.06065

>  <SCORE.SYSTEM.SOLV>
0.259155

>  <SCORE.SYSTEM.VDW>
-4.84857

>  <SCORE.SYSTEM.norm>
-1.56088

>  <SCORE.heavy>
13

>  <SCORE.norm>
-3.64254

$$$$
P129531989
 OpenBabel12072022113D
libRbt.so/2013.1/901 2013/11/27
 15 16  0  0  0  0  0  0  0  0999 V2000
  -29.4718   17.2378  -17.6362 C   0  0  0  0  0  0  0  0  0  0  0  0
  -29.2513   16.7976  -16.3291 C   0  0  0  0  0  0  0  0  0  0  0  0
  -29.9003   17.4226  -15.2676 C   0  0  0  0  0  0  0  0  0  0  0  0
  -30.7962   18.4675  -15.5136 C   0  0  0  0  0  0  0  0  0  0  0  0
  -31.0061   18.9183  -16.8166 C   0  0  0  0  0  0  0  0  0  0  0  0
  -30.3401   18.3110  -17.8920 C   0  0  0  0  0  0  0  0  0  0  0  0
  -30.5839   18.7769  -19.3068 C   0  0  0  0  0  0  0  0  0  0  0  0
  -31.8588   18.2591  -19.8113 N   0  0  0  0  0  0  0  0  0  0  0  0
  -32.8350   18.5577  -18.7744 O   0  0  0  0  0  0  0  0  0  0  0  0
  -31.5009   19.1028  -14.5223 O   0  0  0  0  0  0  0  0  0  0  0  0
  -31.4766   18.3499  -13.3043 C   0  0  0  0  0  0  0  0  0  0  0  0
  -30.0687   17.8646  -13.0015 C   0  0  0  0  0  0  0  0  0  0  0  0
  -29.6206   16.9519  -14.0098 O   0  0  0  0  0  0  0  0  0  0  0  0
  -31.8189   17.2365  -19.7897 H   0  0  0  0  0  0  0  0  0  0  0  0
  -33.0790   19.4791  -18.9913 H   0  0  0  0  0  0  0  0  0  0  0  0
  1  2  2  0  0  0  0
  1  6  1  0  0  0  0
  2  3  1  0  0  0  0
  3  4  2  0  0  0  0
  3 13  1  0  0  0  0
  4  5  1  0  0  0  0
  4 10  1  0  0  0  0
  5  6  2  0  0  0  0
  6  7  1  0  0  0  0
  7  8  1  0  0  0  0
  8  9  1  0  0  0  0
  8 14  1  0  0  0  0
  9 15  1  0  0  0  0
 10 11  1  0  0  0  0
 11 12  1  0  0  0  0
 12 13  1  0  0  0  0
M  END
>  <CHROM.0>
-54.09662513,53.65465252,-65.41263894,-43.11412026,-174.87169670,-54.10932287
-68.34321419,-58.06900914,-169.28696322

>  <CHROM.1>
100.80503841,49.09574557,84.32073850,-30.73439592,18.09299682,-16.33080645
-1.81326356,-0.57972615,1.54202178

>  <Name>
P129531989

>  <RI>
0

>  <Rbt.Current_Directory>
/home/fstefaniak/projects/zuza/docking/adenine/4TZX

>  <Rbt.Executable>
rbdock ($Id: //depot/dev/client3/rdock/2013.1/src/exe/rbdock.cxx#4 $)

>  <Rbt.Library>
libRbt.so (2013.1, Build901 2013/11/27)

>  <Rbt.Parameter_File>
/home/fstefaniak/progs/rDock//data/scripts/dock_solv.prm

>  <Rbt.Receptor>
4tzx.prm

>  <SCORE>
-47.3062

>  <SCORE.INTER>
-28.2629

>  <SCORE.INTER.CONST>
1

>  <SCORE.INTER.POLAR>
-4.47097

>  <SCORE.INTER.ROT>
2

>  <SCORE.INTER.SOLV>
15.3868

>  <SCORE.INTER.VDW>
-14.001

>  <SCORE.INTER.norm>
-2.17407

>  <SCORE.INTRA>
1.27529

>  <SCORE.INTRA.DIHEDRAL>
-0.525704

>  <SCORE.INTRA.DIHEDRAL.0>
1.58789

>  <SCORE.INTRA.POLAR>
0

>  <SCORE.INTRA.POLAR.0>
0

>  <SCORE.INTRA.REPUL>
0

>  <SCORE.INTRA.REPUL.0>
0

>  <SCORE.INTRA.SOLV>
1.11968

>  <SCORE.INTRA.SOLV.lig_0>
-15.573

>  <SCORE.INTRA.VDW>
0.978296

>  <SCORE.INTRA.VDW.0>
-0.648946

>  <SCORE.INTRA.norm>
0.0980989

>  <SCORE.RESTR>
0

>  <SCORE.RESTR.CAVITY>
0

>  <SCORE.RESTR.norm>
0

>  <SCORE.SYSTEM>
-20.3186

>  <SCORE.SYSTEM.CONST>
0

>  <SCORE.SYSTEM.DIHEDRAL>
5.0011

>  <SCORE.SYSTEM.POLAR>
-3.13076

>  <SCORE.SYSTEM.SOLV>
0.108271

>  <SCORE.SYSTEM.VDW>
-4.81298

>  <SCORE.SYSTEM.norm>
-1.56297

>  <SCORE.heavy>
13

>  <SCORE.norm>
-3.63894

$$$$
P129629388
 OpenBabel12072022113D
libRbt.so/2013.1/901 2013/11/27
 14 14  0  0  0  0  0  0  0  0999 V2000
  -27.5155   12.2560  -15.6478 C   0  0  0  0  0  0  0  0  0  0  0  0
  -27.6093   12.5944  -17.1186 C   0  0  0  0  0  0  0  0  0  0  0  0
  -28.2928   13.8773  -17.5559 C   0  0  2  0  0  0  0  0  0  0  0  0
  -26.7882   13.7646  -17.6605 C   0  0  1  0  0  0  0  0  0  0  0  0
  -25.7367   14.3569  -16.7946 C   0  0  0  0  0  0  0  0  0  0  0  0
  -25.8435   15.5075  -16.3999 O   0  0  0  0  0  0  0  0  0  0  0  0
  -24.7299   13.5455  -16.4178 O   0  0  0  0  0  0  0  0  0  0  0  0
  -28.9734   14.7785  -16.6044 C   0  0  0  0  0  0  0  0  0  0  0  0
  -29.7641   14.3160  -15.7953 O   0  0  0  0  0  0  0  0  0  0  0  0
  -28.5933   16.0880  -16.7054 N   0  0  0  0  0  0  0  0  0  0  0  0
  -29.1176   17.1191  -15.8449 C   0  0  0  0  0  0  0  0  0  0  0  0
  -27.7542   11.3819  -18.0031 C   0  0  0  0  0  0  0  0  0  0  0  0
  -24.0148   13.9879  -15.9021 H   0  0  0  0  0  0  0  0  0  0  0  0
  -27.9382   16.3526  -17.4301 H   0  0  0  0  0  0  0  0  0  0  0  0
  1  2  1  0  0  0  0
  2  3  1  0  0  0  0
  2  4  1  0  0  0  0
  2 12  1  0  0  0  0
  3  4  1  0  0  0  0
  3  8  1  1  0  0  0
  4  5  1  1  0  0  0
  5  6  2  0  0  0  0
  5  7  1  0  0  0  0
  7 13  1  0  0  0  0
  8  9  2  0  0  0  0
  8 10  1  0  0  0  0
 10 11  1  0  0  0  0
 10 14  1  0  0  0  0
M  END
>  <CHROM.0>
-59.22289409,-72.11375744,-61.51798381,-41.90491558,-173.59274853,-60.02132813
-65.61001799,-56.67152462,-168.08917473

>  <CHROM.1>
-48.61646476,-114.86436272,175.52539848,-27.52863528,14.15721852,-16.67545193
0.92107301,-0.02079302,-2.91923700

>  <Name>
P129629388

>  <RI>
0

>  <Rbt.Current_Directory>
/home/fstefaniak/projects/zuza/docking/adenine/4TZX

>  <Rbt.Executable>
rbdock ($Id: //depot/dev/client3/rdock/2013.1/src/exe/rbdock.cxx#4 $)

>  <Rbt.Library>
libRbt.so (2013.1, Build901 2013/11/27)

>  <Rbt.Parameter_File>
/home/fstefaniak/progs/rDock//data/scripts/dock_solv.prm

>  <Rbt.Receptor>
4tzx.prm

>  <SCORE>
-33.8475

>  <SCORE.INTER>
-14.0289

>  <SCORE.INTER.CONST>
1

>  <SCORE.INTER.POLAR>
-1.60008

>  <SCORE.INTER.ROT>
2

>  <SCORE.INTER.SOLV>
10.3959

>  <SCORE.INTER.VDW>
-12.4176

>  <SCORE.INTER.norm>
-1.16907

>  <SCORE.INTRA>
1.0817

>  <SCORE.INTRA.DIHEDRAL>
-0.656327

>  <SCORE.INTRA.DIHEDRAL.0>
4.88741

>  <SCORE.INTRA.POLAR>
0.559421

>  <SCORE.INTRA.POLAR.0>
-0.559421

>  <SCORE.INTRA.REPUL>
0

>  <SCORE.INTRA.REPUL.0>
0

>  <SCORE.INTRA.SOLV>
0.511344

>  <SCORE.INTRA.SOLV.lig_0>
-13.2448

>  <SCORE.INTRA.VDW>
-0.747841

>  <SCORE.INTRA.VDW.0>
-1.2147

>  <SCORE.INTRA.norm>
0.0901415

>  <SCORE.RESTR>
0.0177253

>  <SCORE.RESTR.CAVITY>
0.0177253

>  <SCORE.RESTR.norm>
0.00147711

>  <SCORE.SYSTEM>
-20.918

>  <SCORE.SYSTEM.CONST>
0

>  <SCORE.SYSTEM.DIHEDRAL>
5.27922

>  <SCORE.SYSTEM.POLAR>
-3.07771

>  <SCORE.SYSTEM.SOLV>
0.0109263

>  <SCORE.SYSTEM.VDW>
-5.4497

>  <SCORE.SYSTEM.norm>
-1.74317

>  <SCORE.heavy>
12

>  <SCORE.norm>
-2.82062

$$$$
P129629388
 OpenBabel12072022113D
libRbt.so/2013.1/901 2013/11/27
 14 14  0  0  0  0  0  0  0  0999 V2000
  -27.8701   11.8202  -15.9191 C   0  0  0  0  0  0  0  0  0  0  0  0
  -27.5802   12.4953  -17.2407 C   0  0  0  0  0  0  0  0  0  0  0  0
  -27.7594   13.9965  -17.3767 C   0  0  2  0  0  0  0  0  0  0  0  0
  -26.3636   13.4148  -17.3485 C   0  0  1  0  0  0  0  0  0  0  0  0
  -25.3677   13.4087  -16.2466 C   0  0  0  0  0  0  0  0  0  0  0  0
  -25.6642   13.8554  -15.1494 O   0  0  0  0  0  0  0  0  0  0  0  0
  -24.1810   12.8247  -16.5015 O   0  0  0  0  0  0  0  0  0  0  0  0
  -28.3110   14.8319  -16.2911 C   0  0  0  0  0  0  0  0  0  0  0  0
  -28.1509   14.4928  -15.1278 O   0  0  0  0  0  0  0  0  0  0  0  0
  -28.9303   15.9718  -16.7228 N   0  0  0  0  0  0  0  0  0  0  0  0
  -29.5058   16.9354  -15.8178 C   0  0  0  0  0  0  0  0  0  0  0  0
  -27.9064   11.6355  -18.4356 C   0  0  0  0  0  0  0  0  0  0  0  0
  -24.0839   12.4711  -17.4173 H   0  0  0  0  0  0  0  0  0  0  0  0
  -29.0146   16.1358  -17.7180 H   0  0  0  0  0  0  0  0  0  0  0  0
  1  2  1  0  0  0  0
  2  3  1  0  0  0  0
  2  4  1  0  0  0  0
  2 12  1  0  0  0  0
  3  4  1  0  0  0  0
  3  8  1  1  0  0  0
  4  5  1  1  0  0  0
  5  6  2  0  0  0  0
  5  7  1  0  0  0  0
  7 13  1  0  0  0  0
  8  9  2  0  0  0  0
  8 10  1  0  0  0  0
 10 11  1  0  0  0  0
 10 14  1  0  0  0  0
M  END
>  <CHROM.0>
-63.14923746,-66.47876941,60.62875387,-43.16146199,-58.55037340,-58.17097554
55.72883623,-57.37232621,-168.43358787

>  <CHROM.1>
29.09526108,-68.59470106,1.30150739,-27.27547182,13.81283470,-16.48626385
0.75579667,0.33807759,-2.61422236

>  <Name>
P129629388

>  <RI>
0

>  <Rbt.Current_Directory>
/home/fstefaniak/projects/zuza/docking/adenine/4TZX

>  <Rbt.Executable>
rbdock ($Id: //depot/dev/client3/rdock/2013.1/src/exe/rbdock.cxx#4 $)

>  <Rbt.Library>
libRbt.so (2013.1, Build901 2013/11/27)

>  <Rbt.Parameter_File>
/home/fstefaniak/progs/rDock//data/scripts/dock_solv.prm

>  <Rbt.Receptor>
4tzx.prm

>  <SCORE>
-32.3496

>  <SCORE.INTER>
-16.2237

>  <SCORE.INTER.CONST>
1

>  <SCORE.INTER.POLAR>
-2.20624

>  <SCORE.INTER.ROT>
2

>  <SCORE.INTER.SOLV>
9.20372

>  <SCORE.INTER.VDW>
-11.4629

>  <SCORE.INTER.norm>
-1.35197

>  <SCORE.INTRA>
2.85548

>  <SCORE.INTRA.DIHEDRAL>
0.075487

>  <SCORE.INTRA.DIHEDRAL.0>
4.88741

>  <SCORE.INTRA.POLAR>
0.559421

>  <SCORE.INTRA.POLAR.0>
-0.559421

>  <SCORE.INTRA.REPUL>
0

>  <SCORE.INTRA.REPUL.0>
0

>  <SCORE.INTRA.SOLV>
-0.243307

>  <SCORE.INTRA.SOLV.lig_0>
-13.2448

>  <SCORE.INTRA.VDW>
1.03736

>  <SCORE.INTRA.VDW.0>
-1.2147

>  <SCORE.INTRA.norm>
0.237956

>  <SCORE.RESTR>
0.079836

>  <SCORE.RESTR.CAVITY>
0.079836

>  <SCORE.RESTR.norm>
0.006653

>  <SCORE.SYSTEM>
-19.0613

>  <SCORE.SYSTEM.CONST>
0

>  <SCORE.SYSTEM.DIHEDRAL>
4.37323

>  <SCORE.SYSTEM.POLAR>
-3.02179

>  <SCORE.SYSTEM.SOLV>
0.0761371

>  <SCORE.SYSTEM.VDW>
-4.11799

>  <SCORE.SYSTEM.norm>
-1.58844

>  <SCORE.heavy>
12

>  <SCORE.norm>
-2.6958

$$$$
P129629388
 OpenBabel12072022113D
libRbt.so/2013.1/901 2013/11/27
 14 14  0  0  0  0  0  0  0  0999 V2000
  -25.3176   13.3454  -16.5908 C   0  0  0  0  0  0  0  0  0  0  0  0
  -26.4588   12.5708  -15.9711 C   0  0  0  0  0  0  0  0  0  0  0  0
  -27.8195   13.2256  -15.8167 C   0  0  2  0  0  0  0  0  0  0  0  0
  -27.6292   12.1451  -16.8577 C   0  0  1  0  0  0  0  0  0  0  0  0
  -27.4879   12.2708  -18.3309 C   0  0  0  0  0  0  0  0  0  0  0  0
  -27.3633   13.3722  -18.8433 O   0  0  0  0  0  0  0  0  0  0  0  0
  -27.4266   11.1252  -19.0367 O   0  0  0  0  0  0  0  0  0  0  0  0
  -28.0617   14.6426  -16.1547 C   0  0  0  0  0  0  0  0  0  0  0  0
  -27.2017   15.2772  -16.7474 O   0  0  0  0  0  0  0  0  0  0  0  0
  -29.2981   15.1001  -15.7921 N   0  0  0  0  0  0  0  0  0  0  0  0
  -29.7401   16.4455  -16.0624 C   0  0  0  0  0  0  0  0  0  0  0  0
  -26.0150   11.6068  -14.9000 C   0  0  0  0  0  0  0  0  0  0  0  0
  -27.2498   11.2434  -19.9999 H   0  0  0  0  0  0  0  0  0  0  0  0
  -29.9208   14.4807  -15.2891 H   0  0  0  0  0  0  0  0  0  0  0  0
  1  2  1  0  0  0  0
  2  3  1  0  0  0  0
  2  4  1  0  0  0  0
  2 12  1  0  0  0  0
  3  4  1  0  0  0  0
  3  8  1  6  0  0  0
  4  5  1  6  0  0  0
  5  6  2  0  0  0  0
  5  7  1  0  0  0  0
  7 13  1  0  0  0  0
  8  9  2  0  0  0  0
  8 10  1  0  0  0  0
 10 11  1  0  0  0  0
 10 14  1  0  0  0  0
M  END
>  <CHROM.0>
-62.12056673,13.69268698,-70.87140908,-42.77604844,-60.40125827,-63.62031400
-170.77278336,-58.90646229,-168.87061673

>  <CHROM.1>
10.16240804,-64.54144115,-174.63805908,-27.48667594,13.43928629,-16.80614518
-0.76045755,-0.85351413,1.05472808

>  <Name>
P129629388

>  <RI>
0

>  <Rbt.Current_Directory>
/home/fstefaniak/projects/zuza/docking/adenine/4TZX

>  <Rbt.Executable>
rbdock ($Id: //depot/dev/client3/rdock/2013.1/src/exe/rbdock.cxx#4 $)

>  <Rbt.Library>
libRbt.so (2013.1, Build901 2013/11/27)

>  <Rbt.Parameter_File>
/home/fstefaniak/progs/rDock//data/scripts/dock_solv.prm

>  <Rbt.Receptor>
4tzx.prm

>  <SCORE>
-32.0818

>  <SCORE.INTER>
-17.9052

>  <SCORE.INTER.CONST>
1

>  <SCORE.INTER.POLAR>
-1.70498

>  <SCORE.INTER.ROT>
2

>  <SCORE.INTER.SOLV>
10.0085

>  <SCORE.INTER.VDW>
-14.523

>  <SCORE.INTER.norm>
-1.4921

>  <SCORE.INTRA>
3.01323

>  <SCORE.INTRA.DIHEDRAL>
-0.17368

>  <SCORE.INTRA.DIHEDRAL.0>
4.88741

>  <SCORE.INTRA.POLAR>
0.559421

>  <SCORE.INTRA.POLAR.0>
-0.559421

>  <SCORE.INTRA.REPUL>
0

>  <SCORE.INTRA.REPUL.0>
0

>  <SCORE.INTRA.SOLV>
-0.121496

>  <SCORE.INTRA.SOLV.lig_0>
-13.2448

>  <SCORE.INTRA.VDW>
1.25879

>  <SCORE.INTRA.VDW.0>
-1.2147

>  <SCORE.INTRA.norm>
0.251102

>  <SCORE.RESTR>
0

>  <SCORE.RESTR.CAVITY>
0

>  <SCORE.RESTR.norm>
0

>  <SCORE.SYSTEM>
-17.1898

>  <SCORE.SYSTEM.CONST>
0

>  <SCORE.SYSTEM.DIHEDRAL>
11.1729

>  <SCORE.SYSTEM.POLAR>
-3.22193

>  <SCORE.SYSTEM.SOLV>
0.30844

>  <SCORE.SYSTEM.VDW>
-4.54724

>  <SCORE.SYSTEM.norm>
-1.43249

>  <SCORE.heavy>
12

>  <SCORE.norm>
-2.67348

$$$$
P129681270
 OpenBabel12072022113D
libRbt.so/2013.1/901 2013/11/27
 18 18  0  0  0  0  0  0  0  0999 V2000
  -29.3773   17.3992  -14.2805 C   0  0  0  0  0  0  0  0  0  0  0  0
  -29.0601   16.9842  -15.7190 C   0  0  2  0  0  0  0  0  0  0  0  0
  -30.2319   17.2834  -16.6804 C   0  0  1  0  0  0  0  0  0  0  0  0
  -30.8820   18.6485  -16.5175 C   0  0  0  0  0  0  0  0  0  0  0  0
  -31.5281   18.8410  -17.8660 C   0  0  0  0  0  0  0  0  0  0  0  0
  -30.4951   18.2505  -18.7996 C   0  0  0  0  0  0  0  0  0  0  0  0
  -29.7597   17.2599  -18.0498 O   0  0  0  0  0  0  0  0  0  0  0  0
  -28.6708   15.5349  -15.7059 N   0  0  0  0  0  0  0  0  0  0  0  0
  -27.5062   15.0035  -16.1255 C   0  0  0  0  0  0  0  0  0  0  0  0
  -26.5360   15.7303  -16.7444 N   0  3  0  0  0  0  0  0  0  0  0  0
  -26.6756   16.7232  -16.9775 H   0  0  0  0  0  0  0  0  0  0  0  0
  -25.3577   15.1038  -17.1828 N   0  0  0  0  0  0  0  0  0  0  0  0
  -27.2781   13.6959  -15.9033 N   0  0  0  0  0  0  0  0  0  0  0  0
  -29.2975   14.8945  -15.2372 H   0  0  0  0  0  0  0  0  0  0  0  0
  -25.2183   15.3352  -18.1745 H   0  0  0  0  0  0  0  0  0  0  0  0
  -24.5629   15.5425  -16.6995 H   0  0  0  0  0  0  0  0  0  0  0  0
  -27.9290   13.0812  -15.4403 H   0  0  0  0  0  0  0  0  0  0  0  0
  -26.3458   13.3582  -16.1152 H   0  0  0  0  0  0  0  0  0  0  0  0
  2  8  1  0  0  0  0
  2  1  1  1  0  0  0
  3  2  1  1  0  0  0
  3  4  1  0  0  0  0
  3  7  1  0  0  0  0
  4  5  1  0  0  0  0
  5  6  1  0  0  0  0
  6  7  1  0  0  0  0
  8  9  1  0  0  0  0
  8 14  1  0  0  0  0
  9 10  2  0  0  0  0
  9 13  1  0  0  0  0
 10 11  1  0  0  0  0
 10 12  1  0  0  0  0
 12 15  1  0  0  0  0
 12 16  1  0  0  0  0
 13 17  1  0  0  0  0
 13 18  1  0  0  0  0
M  CHG  1  10   1
M  END
>  <CHROM.0>
-61.09395190,-178.17373399,-67.48231492,-43.15500431,-56.56044485,-64.95700185
-69.70725648,-62.51051892,-168.62678170

>  <CHROM.1>
44.68359984,-121.22296487,127.31795936,-28.83371970,16.60654309,-16.63806196
2.78178752,0.64007557,-1.30008514

>  <Name>
P129681270

>  <RI>
0

>  <Rbt.Current_Directory>
/home/fstefaniak/projects/zuza/docking/adenine/4TZX

>  <Rbt.Executable>
rbdock ($Id: //depot/dev/client3/rdock/2013.1/src/exe/rbdock.cxx#4 $)

>  <Rbt.Library>
libRbt.so (2013.1, Build901 2013/11/27)

>  <Rbt.Parameter_File>
/home/fstefaniak/progs/rDock//data/scripts/dock_solv.prm

>  <Rbt.Receptor>
4tzx.prm

>  <SCORE>
-57.948

>  <SCORE.INTER>
-38.542

>  <SCORE.INTER.CONST>
1

>  <SCORE.INTER.POLAR>
-4.84593

>  <SCORE.INTER.ROT>
3

>  <SCORE.INTER.SOLV>
16.9474

>  <SCORE.INTER.VDW>
-20.7907

>  <SCORE.INTER.norm>
-3.21183

>  <SCORE.INTRA>
1.64949

>  <SCORE.INTRA.DIHEDRAL>
0.196894

>  <SCORE.INTRA.DIHEDRAL.0>
3.75321

>  <SCORE.INTRA.POLAR>
0.908492

>  <SCORE.INTRA.POLAR.0>
-0.978601

>  <SCORE.INTRA.REPUL>
0

>  <SCORE.INTRA.REPUL.0>
0

>  <SCORE.INTRA.SOLV>
-1.71985

>  <SCORE.INTRA.SOLV.lig_0>
-28.1054

>  <SCORE.INTRA.VDW>
-0.677907

>  <SCORE.INTRA.VDW.0>
0.9987

>  <SCORE.INTRA.norm>
0.137458

>  <SCORE.RESTR>
0

>  <SCORE.RESTR.CAVITY>
0

>  <SCORE.RESTR.norm>
0

>  <SCORE.SYSTEM>
-21.0555

>  <SCORE.SYSTEM.CONST>
0

>  <SCORE.SYSTEM.DIHEDRAL>
4.85677

>  <SCORE.SYSTEM.POLAR>
-3.04621

>  <SCORE.SYSTEM.SOLV>
0.136648

>  <SCORE.SYSTEM.VDW>
-5.54744

>  <SCORE.SYSTEM.norm>
-1.75463

>  <SCORE.heavy>
12

>  <SCORE.norm>
-4.829

$$$$
P129681270
 OpenBabel12072022113D
libRbt.so/2013.1/901 2013/11/27
 18 18  0  0  0  0  0  0  0  0999 V2000
  -29.3572   17.4030  -14.2955 C   0  0  0  0  0  0  0  0  0  0  0  0
  -29.0472   16.9821  -15.7338 C   0  0  2  0  0  0  0  0  0  0  0  0
  -30.2221   17.2814  -16.6914 C   0  0  1  0  0  0  0  0  0  0  0  0
  -30.8681   18.6486  -16.5301 C   0  0  0  0  0  0  0  0  0  0  0  0
  -31.5191   18.8387  -17.8765 C   0  0  0  0  0  0  0  0  0  0  0  0
  -30.4913   18.2429  -18.8125 C   0  0  0  0  0  0  0  0  0  0  0  0
  -29.7554   17.2527  -18.0626 O   0  0  0  0  0  0  0  0  0  0  0  0
  -28.6620   15.5318  -15.7173 N   0  0  0  0  0  0  0  0  0  0  0  0
  -27.4963   14.9969  -16.1294 C   0  0  0  0  0  0  0  0  0  0  0  0
  -26.5202   15.7206  -16.7427 N   0  3  0  0  0  0  0  0  0  0  0  0
  -26.6557   16.7137  -16.9774 H   0  0  0  0  0  0  0  0  0  0  0  0
  -25.3410   15.0904  -17.1734 N   0  0  0  0  0  0  0  0  0  0  0  0
  -27.2732   13.6888  -15.9049 N   0  0  0  0  0  0  0  0  0  0  0  0
  -29.2933   14.8934  -15.2520 H   0  0  0  0  0  0  0  0  0  0  0  0
  -25.1917   15.3256  -18.1628 H   0  0  0  0  0  0  0  0  0  0  0  0
  -24.5485   15.5233  -16.6812 H   0  0  0  0  0  0  0  0  0  0  0  0
  -27.9286   13.0763  -15.4455 H   0  0  0  0  0  0  0  0  0  0  0  0
  -26.3406   13.3484  -16.1107 H   0  0  0  0  0  0  0  0  0  0  0  0
  2  8  1  0  0  0  0
  2  1  1  1  0  0  0
  3  2  1  1  0  0  0
  3  4  1  0  0  0  0
  3  7  1  0  0  0  0
  4  5  1  0  0  0  0
  5  6  1  0  0  0  0
  6  7  1  0  0  0  0
  8  9  1  0  0  0  0
  8 14  1  0  0  0  0
  9 10  2  0  0  0  0
  9 13  1  0  0  0  0
 10 11  1  0  0  0  0
 10 12  1  0  0  0  0
 12 15  1  0  0  0  0
 12 16  1  0  0  0  0
 13 17  1  0  0  0  0
 13 18  1  0  0  0  0
M  CHG  1  10   1
M  END
>  <CHROM.0>
-59.19504863,-177.75063049,-64.21894880,-42.53842949,-58.85171842,58.96759059
-65.08918933,-53.70237041,-169.55236834

>  <CHROM.1>
44.64809760,-120.61297169,127.66779933,-28.82289342,16.60163539,-16.64574878
2.78228948,0.64119135,-1.30529887

>  <Name>
P129681270

>  <RI>
0

>  <Rbt.Current_Directory>
/home/fstefaniak/projects/zuza/docking/adenine/4TZX

>  <Rbt.Executable>
rbdock ($Id: //depot/dev/client3/rdock/2013.1/src/exe/rbdock.cxx#4 $)

>  <Rbt.Library>
libRbt.so (2013.1, Build901 2013/11/27)

>  <Rbt.Parameter_File>
/home/fstefaniak/progs/rDock//data/scripts/dock_solv.prm

>  <Rbt.Receptor>
4tzx.prm

>  <SCORE>
-56.624

>  <SCORE.INTER>
-38.4845

>  <SCORE.INTER.CONST>
1

>  <SCORE.INTER.POLAR>
-4.85065

>  <SCORE.INTER.ROT>
3

>  <SCORE.INTER.SOLV>
16.9232

>  <SCORE.INTER.VDW>
-20.7285

>  <SCORE.INTER.norm>
-3.20704

>  <SCORE.INTRA>
1.66709

>  <SCORE.INTRA.DIHEDRAL>
0.216945

>  <SCORE.INTRA.DIHEDRAL.0>
3.75321

>  <SCORE.INTRA.POLAR>
0.908492

>  <SCORE.INTRA.POLAR.0>
-0.978601

>  <SCORE.INTRA.REPUL>
0

>  <SCORE.INTRA.REPUL.0>
0

>  <SCORE.INTRA.SOLV>
-1.72633

>  <SCORE.INTRA.SOLV.lig_0>
-28.1054

>  <SCORE.INTRA.VDW>
-0.667093

>  <SCORE.INTRA.VDW.0>
0.9987

>  <SCORE.INTRA.norm>
0.138924

>  <SCORE.RESTR>
0

>  <SCORE.RESTR.CAVITY>
0

>  <SCORE.RESTR.norm>
0

>  <SCORE.SYSTEM>
-19.8067

>  <SCORE.SYSTEM.CONST>
0

>  <SCORE.SYSTEM.DIHEDRAL>
4.38518

>  <SCORE.SYSTEM.POLAR>
-3.06374

>  <SCORE.SYSTEM.SOLV>
0.042052

>  <SCORE.SYSTEM.VDW>
-4.4677

>  <SCORE.SYSTEM.norm>
-1.65055

>  <SCORE.heavy>
12

>  <SCORE.norm>
-4.71867

$$$$
P129681270
 OpenBabel12072022113D
libRbt.so/2013.1/901 2013/11/27
 18 18  0  0  0  0  0  0  0  0999 V2000
  -29.3504   17.4490  -14.3280 C   0  0  0  0  0  0  0  0  0  0  0  0
  -29.0251   17.0207  -15.7607 C   0  0  2  0  0  0  0  0  0  0  0  0
  -30.1811   17.3348  -16.7363 C   0  0  1  0  0  0  0  0  0  0  0  0
  -30.7034   18.7625  -16.6969 C   0  0  0  0  0  0  0  0  0  0  0  0
  -31.3519   18.8871  -18.0521 C   0  0  0  0  0  0  0  0  0  0  0  0
  -30.3918   18.1212  -18.9347 C   0  0  0  0  0  0  0  0  0  0  0  0
  -29.7358   17.1417  -18.1013 O   0  0  0  0  0  0  0  0  0  0  0  0
  -28.6610   15.5651  -15.7357 N   0  0  0  0  0  0  0  0  0  0  0  0
  -27.4997   15.0118  -16.1361 C   0  0  0  0  0  0  0  0  0  0  0  0
  -26.5082   15.7191  -16.7438 N   0  3  0  0  0  0  0  0  0  0  0  0
  -26.6274   16.7131  -16.9831 H   0  0  0  0  0  0  0  0  0  0  0  0
  -25.3347   15.0704  -17.1622 N   0  0  0  0  0  0  0  0  0  0  0  0
  -27.2975   13.7016  -15.9049 N   0  0  0  0  0  0  0  0  0  0  0  0
  -29.3053   14.9376  -15.2735 H   0  0  0  0  0  0  0  0  0  0  0  0
  -25.1759   15.2964  -18.1523 H   0  0  0  0  0  0  0  0  0  0  0  0
  -24.5397   15.4963  -16.6679 H   0  0  0  0  0  0  0  0  0  0  0  0
  -27.9655   13.1002  -15.4489 H   0  0  0  0  0  0  0  0  0  0  0  0
  -26.3682   13.3470  -16.1017 H   0  0  0  0  0  0  0  0  0  0  0  0
  2  8  1  0  0  0  0
  2  1  1  1  0  0  0
  3  2  1  1  0  0  0
  3  4  1  0  0  0  0
  3  7  1  0  0  0  0
  4  5  1  0  0  0  0
  5  6  1  0  0  0  0
  6  7  1  0  0  0  0
  8  9  1  0  0  0  0
  8 14  1  0  0  0  0
  9 10  2  0  0  0  0
  9 13  1  0  0  0  0
 10 11  1  0  0  0  0
 10 12  1  0  0  0  0
 12 15  1  0  0  0  0
 12 16  1  0  0  0  0
 13 17  1  0  0  0  0
 13 18  1  0  0  0  0
M  CHG  1  10   1
M  END
>  <CHROM.0>
-58.56176601,-63.31112667,-64.95548137,-41.29762246,-58.43979597,-64.09456325
-66.82832506,-59.98201615,-169.16781292

>  <CHROM.1>
51.38270409,-120.99817033,127.43275474,-28.78159558,16.60865043,-16.69628848
2.77546266,0.66241640,-1.33951386

>  <Name>
P129681270

>  <RI>
0

>  <Rbt.Current_Directory>
/home/fstefaniak/projects/zuza/docking/adenine/4TZX

>  <Rbt.Executable>
rbdock ($Id: //depot/dev/client3/rdock/2013.1/src/exe/rbdock.cxx#4 $)

>  <Rbt.Library>
libRbt.so (2013.1, Build901 2013/11/27)

>  <Rbt.Parameter_File>
/home/fstefaniak/progs/rDock//data/scripts/dock_solv.prm

>  <Rbt.Receptor>
4tzx.prm

>  <SCORE>
-52.6259

>  <SCORE.INTER>
-32.4661

>  <SCORE.INTER.CONST>
1

>  <SCORE.INTER.POLAR>
-3.64943

>  <SCORE.INTER.ROT>
3

>  <SCORE.INTER.SOLV>
16.9487

>  <SCORE.INTER.VDW>
-20.7289

>  <SCORE.INTER.norm>
-2.70551

>  <SCORE.INTRA>
0.937287

>  <SCORE.INTRA.DIHEDRAL>
-0.346654

>  <SCORE.INTRA.DIHEDRAL.0>
3.75321

>  <SCORE.INTRA.POLAR>
0.908492

>  <SCORE.INTRA.POLAR.0>
-0.978601

>  <SCORE.INTRA.REPUL>
0

>  <SCORE.INTRA.REPUL.0>
0

>  <SCORE.INTRA.SOLV>
-1.68596

>  <SCORE.INTRA.SOLV.lig_0>
-28.1054

>  <SCORE.INTRA.VDW>
-1.13528

>  <SCORE.INTRA.VDW.0>
0.9987

>  <SCORE.INTRA.norm>
0.0781072

>  <SCORE.RESTR>
0

>  <SCORE.RESTR.CAVITY>
0

>  <SCORE.RESTR.norm>
0

>  <SCORE.SYSTEM>
-21.0971

>  <SCORE.SYSTEM.CONST>
0

>  <SCORE.SYSTEM.DIHEDRAL>
4.66194

>  <SCORE.SYSTEM.POLAR>
-3.07955

>  <SCORE.SYSTEM.SOLV>
0.186919

>  <SCORE.SYSTEM.VDW>
-5.41584

>  <SCORE.SYSTEM.norm>
-1.75809

>  <SCORE.heavy>
12

>  <SCORE.norm>
-4.38549

$$$$
P129681588
 OpenBabel12072022113D
libRbt.so/2013.1/901 2013/11/27
 20 20  0  0  0  0  0  0  0  0999 V2000
  -25.8238   11.3784  -14.0194 C   0  0  0  0  0  0  0  0  0  0  0  0
  -25.1448   12.2971  -15.0277 C   0  0  0  0  0  0  0  0  0  0  0  0
  -25.7240   12.1171  -16.4307 C   0  0  0  0  0  0  0  0  0  0  0  0
  -27.2561   12.3265  -16.4722 C   0  0  0  0  0  0  0  0  0  0  0  0
  -27.9287   11.4110  -15.4168 C   0  0  0  0  0  0  0  0  0  0  0  0
  -27.3349   11.5717  -14.0168 C   0  0  0  0  0  0  0  0  0  0  0  0
  -27.8246   11.9346  -17.8671 C   0  0  0  0  0  0  0  0  0  0  0  0
  -27.5778   12.9534  -18.8399 O   0  0  0  0  0  0  0  0  0  0  0  0
  -27.6019   13.7601  -16.1367 N   0  0  0  0  0  0  0  0  0  0  0  0
  -26.9084   14.8748  -16.4391 C   0  0  0  0  0  0  0  0  0  0  0  0
  -25.7955   14.8706  -17.2226 N   0  3  0  0  0  0  0  0  0  0  0  0
  -25.6238   14.0727  -17.8549 H   0  0  0  0  0  0  0  0  0  0  0  0
  -25.0831   16.0597  -17.4391 N   0  0  0  0  0  0  0  0  0  0  0  0
  -27.3360   16.0527  -15.9478 N   0  0  0  0  0  0  0  0  0  0  0  0
  -28.2295   12.7999  -19.5562 H   0  0  0  0  0  0  0  0  0  0  0  0
  -28.4405   13.9102  -15.5930 H   0  0  0  0  0  0  0  0  0  0  0  0
  -24.2067   16.0194  -16.9048 H   0  0  0  0  0  0  0  0  0  0  0  0
  -24.8077   16.0989  -18.4285 H   0  0  0  0  0  0  0  0  0  0  0  0
  -28.1449   16.1565  -15.3557 H   0  0  0  0  0  0  0  0  0  0  0  0
  -26.8572   16.8819  -16.2813 H   0  0  0  0  0  0  0  0  0  0  0  0
  1  2  1  0  0  0  0
  1  6  1  0  0  0  0
  2  3  1  0  0  0  0
  3  4  1  0  0  0  0
  4  5  1  0  0  0  0
  4  7  1  0  0  0  0
  4  9  1  0  0  0  0
  5  6  1  0  0  0  0
  7  8  1  0  0  0  0
  8 15  1  0  0  0  0
  9 10  1  0  0  0  0
  9 16  1  0  0  0  0
 10 11  2  0  0  0  0
 10 14  1  0  0  0  0
 11 12  1  0  0  0  0
 11 13  1  0  0  0  0
 13 17  1  0  0  0  0
 13 18  1  0  0  0  0
 14 19  1  0  0  0  0
 14 20  1  0  0  0  0
M  CHG  1  11   1
M  END
>  <CHROM.0>
61.14917817,-33.48117126,-71.46790418,-43.21719758,-56.76340742,-175.97571209
-173.39249452,-58.58856301,-169.96365348

>  <CHROM.1>
-77.70502554,34.63430852,-159.28172713,106.87421736,-26.71588802,13.26137759
-16.30811437,-1.77715367,-1.01432345,-0.71189324

>  <Name>
P129681588

>  <RI>
0

>  <Rbt.Current_Directory>
/home/fstefaniak/projects/zuza/docking/adenine/4TZX

>  <Rbt.Executable>
rbdock ($Id: //depot/dev/client3/rdock/2013.1/src/exe/rbdock.cxx#4 $)

>  <Rbt.Library>
libRbt.so (2013.1, Build901 2013/11/27)

>  <Rbt.Parameter_File>
/home/fstefaniak/progs/rDock//data/scripts/dock_solv.prm

>  <Rbt.Receptor>
4tzx.prm

>  <SCORE>
-45.1825

>  <SCORE.INTER>
-33.7427

>  <SCORE.INTER.CONST>
1

>  <SCORE.INTER.POLAR>
-5.40268

>  <SCORE.INTER.ROT>
3

>  <SCORE.INTER.SOLV>
16.93

>  <SCORE.INTER.VDW>
-15.7295

>  <SCORE.INTER.norm>
-2.59559

>  <SCORE.INTRA>
2.79919

>  <SCORE.INTRA.DIHEDRAL>
2.46638

>  <SCORE.INTRA.DIHEDRAL.0>
3.73413

>  <SCORE.INTRA.POLAR>
0.568339

>  <SCORE.INTRA.POLAR.0>
-1.01119

>  <SCORE.INTRA.REPUL>
0

>  <SCORE.INTRA.REPUL.0>
0

>  <SCORE.INTRA.SOLV>
-0.630462

>  <SCORE.INTRA.SOLV.lig_0>
-28.5556

>  <SCORE.INTRA.VDW>
-0.0511162

>  <SCORE.INTRA.VDW.0>
-0.773546

>  <SCORE.INTRA.norm>
0.215323

>  <SCORE.RESTR>
0.362325

>  <SCORE.RESTR.CAVITY>
0.362325

>  <SCORE.RESTR.norm>
0.0278711

>  <SCORE.SYSTEM>
-14.6014

>  <SCORE.SYSTEM.CONST>
0

>  <SCORE.SYSTEM.DIHEDRAL>
7.63867

>  <SCORE.SYSTEM.POLAR>
-2.43713

>  <SCORE.SYSTEM.SOLV>
0.143002

>  <SCORE.SYSTEM.VDW>
-4.20439

>  <SCORE.SYSTEM.norm>
-1.12318

>  <SCORE.heavy>
13

>  <SCORE.norm>
-3.47558

$$$$
P129681588
 OpenBabel12072022113D
libRbt.so/2013.1/901 2013/11/27
 20 20  0  0  0  0  0  0  0  0999 V2000
  -27.6224   14.7470  -16.1395 C   0  0  0  0  0  0  0  0  0  0  0  0
  -29.0375   14.6062  -16.6868 C   0  0  0  0  0  0  0  0  0  0  0  0
  -30.0096   15.5509  -15.9806 C   0  0  0  0  0  0  0  0  0  0  0  0
  -29.5594   17.0291  -16.0526 C   0  0  0  0  0  0  0  0  0  0  0  0
  -28.1061   17.1499  -15.5255 C   0  0  0  0  0  0  0  0  0  0  0  0
  -27.1360   16.1888  -16.2137 C   0  0  0  0  0  0  0  0  0  0  0  0
  -30.4630   17.9211  -15.1525 C   0  0  0  0  0  0  0  0  0  0  0  0
  -30.4910   17.4475  -13.8034 O   0  0  0  0  0  0  0  0  0  0  0  0
  -29.5803   17.5178  -17.4837 N   0  0  0  0  0  0  0  0  0  0  0  0
  -30.6324   17.9741  -18.1907 C   0  0  0  0  0  0  0  0  0  0  0  0
  -31.8663   18.1676  -17.6498 N   0  3  0  0  0  0  0  0  0  0  0  0
  -31.9616   18.2643  -16.6263 H   0  0  0  0  0  0  0  0  0  0  0  0
  -32.9337   18.5793  -18.4618 N   0  0  0  0  0  0  0  0  0  0  0  0
  -30.4580   18.2578  -19.4949 N   0  0  0  0  0  0  0  0  0  0  0  0
  -31.1165   18.0349  -13.3288 H   0  0  0  0  0  0  0  0  0  0  0  0
  -28.7079   17.4738  -17.9920 H   0  0  0  0  0  0  0  0  0  0  0  0
  -32.6599   19.4390  -18.9531 H   0  0  0  0  0  0  0  0  0  0  0  0
  -33.0787   17.8717  -19.1929 H   0  0  0  0  0  0  0  0  0  0  0  0
  -29.5850   18.1428  -19.9852 H   0  0  0  0  0  0  0  0  0  0  0  0
  -31.2375   18.6997  -19.9692 H   0  0  0  0  0  0  0  0  0  0  0  0
  1  2  1  0  0  0  0
  1  6  1  0  0  0  0
  2  3  1  0  0  0  0
  3  4  1  0  0  0  0
  4  5  1  0  0  0  0
  4  7  1  0  0  0  0
  4  9  1  0  0  0  0
  5  6  1  0  0  0  0
  7  8  1  0  0  0  0
  8 15  1  0  0  0  0
  9 10  1  0  0  0  0
  9 16  1  0  0  0  0
 10 11  2  0  0  0  0
 10 14  1  0  0  0  0
 11 12  1  0  0  0  0
 11 13  1  0  0  0  0
 13 17  1  0  0  0  0
 13 18  1  0  0  0  0
 14 19  1  0  0  0  0
 14 20  1  0  0  0  0
M  CHG  1  11   1
M  END
>  <CHROM.0>
-56.37938845,-59.37694129,-64.51223481,-41.11587502,-56.70764799,-58.93357175
-63.24347058,-171.51126778,-169.07794591

>  <CHROM.1>
55.33875688,82.65466227,-176.97703455,-54.76085040,-29.88990124,17.05174008
-16.68916223,-0.57393431,0.63247687,-1.54345120

>  <Name>
P129681588

>  <RI>
0

>  <Rbt.Current_Directory>
/home/fstefaniak/projects/zuza/docking/adenine/4TZX

>  <Rbt.Executable>
rbdock ($Id: //depot/dev/client3/rdock/2013.1/src/exe/rbdock.cxx#4 $)

>  <Rbt.Library>
libRbt.so (2013.1, Build901 2013/11/27)

>  <Rbt.Parameter_File>
/home/fstefaniak/progs/rDock//data/scripts/dock_solv.prm

>  <Rbt.Receptor>
4tzx.prm

>  <SCORE>
-44.5751

>  <SCORE.INTER>
-31.6141

>  <SCORE.INTER.CONST>
1

>  <SCORE.INTER.POLAR>
-4.95976

>  <SCORE.INTER.ROT>
3

>  <SCORE.INTER.SOLV>
22.6845

>  <SCORE.INTER.VDW>
-17.705

>  <SCORE.INTER.norm>
-2.43185

>  <SCORE.INTRA>
7.91494

>  <SCORE.INTRA.DIHEDRAL>
-0.414612

>  <SCORE.INTRA.DIHEDRAL.0>
3.73413

>  <SCORE.INTRA.POLAR>
1.01119

>  <SCORE.INTRA.POLAR.0>
-1.01119

>  <SCORE.INTRA.REPUL>
0

>  <SCORE.INTRA.REPUL.0>
0

>  <SCORE.INTRA.SOLV>
-1.20395

>  <SCORE.INTRA.SOLV.lig_0>
-28.5556

>  <SCORE.INTRA.VDW>
5.28617

>  <SCORE.INTRA.VDW.0>
-0.773546

>  <SCORE.INTRA.norm>
0.608842

>  <SCORE.RESTR>
0

>  <SCORE.RESTR.CAVITY>
0

>  <SCORE.RESTR.norm>
0

>  <SCORE.SYSTEM>
-20.8759

>  <SCORE.SYSTEM.CONST>
0

>  <SCORE.SYSTEM.DIHEDRAL>
4.80407

>  <SCORE.SYSTEM.POLAR>
-3.10823

>  <SCORE.SYSTEM.SOLV>
0.0831175

>  <SCORE.SYSTEM.VDW>
-5.1856

>  <SCORE.SYSTEM.norm>
-1.60584

>  <SCORE.heavy>
13

>  <SCORE.norm>
-3.42885

$$$$
P129681588
 OpenBabel12072022113D
libRbt.so/2013.1/901 2013/11/27
 20 20  0  0  0  0  0  0  0  0999 V2000
  -31.4574   18.3025  -16.4697 C   0  0  0  0  0  0  0  0  0  0  0  0
  -31.1452   17.5563  -15.1784 C   0  0  0  0  0  0  0  0  0  0  0  0
  -30.5777   16.1647  -15.4567 C   0  0  0  0  0  0  0  0  0  0  0  0
  -29.3233   16.2047  -16.3611 C   0  0  0  0  0  0  0  0  0  0  0  0
  -29.6470   16.9970  -17.6540 C   0  0  0  0  0  0  0  0  0  0  0  0
  -30.2373   18.3805  -17.3785 C   0  0  0  0  0  0  0  0  0  0  0  0
  -28.9058   14.7656  -16.7821 C   0  0  0  0  0  0  0  0  0  0  0  0
  -28.1784   14.1048  -15.7431 O   0  0  0  0  0  0  0  0  0  0  0  0
  -28.1856   16.9070  -15.6542 N   0  0  0  0  0  0  0  0  0  0  0  0
  -26.8632   16.7807  -15.8790 C   0  0  0  0  0  0  0  0  0  0  0  0
  -26.3480   16.0430  -16.9002 N   0  3  0  0  0  0  0  0  0  0  0  0
  -26.9458   15.8102  -17.7092 H   0  0  0  0  0  0  0  0  0  0  0  0
  -24.9588   15.8992  -17.0329 N   0  0  0  0  0  0  0  0  0  0  0  0
  -26.0066   17.4168  -15.0584 N   0  0  0  0  0  0  0  0  0  0  0  0
  -28.7968   14.0420  -14.9848 H   0  0  0  0  0  0  0  0  0  0  0  0
  -28.4352   17.5291  -14.8978 H   0  0  0  0  0  0  0  0  0  0  0  0
  -24.6193   15.2840  -16.2836 H   0  0  0  0  0  0  0  0  0  0  0  0
  -24.7650   15.4042  -17.9125 H   0  0  0  0  0  0  0  0  0  0  0  0
  -26.2914   17.9812  -14.2736 H   0  0  0  0  0  0  0  0  0  0  0  0
  -25.0271   17.3896  -15.3189 H   0  0  0  0  0  0  0  0  0  0  0  0
  1  2  1  0  0  0  0
  1  6  1  0  0  0  0
  2  3  1  0  0  0  0
  3  4  1  0  0  0  0
  4  5  1  0  0  0  0
  4  7  1  0  0  0  0
  4  9  1  0  0  0  0
  5  6  1  0  0  0  0
  7  8  1  0  0  0  0
  8 15  1  0  0  0  0
  9 10  1  0  0  0  0
  9 16  1  0  0  0  0
 10 11  2  0  0  0  0
 10 14  1  0  0  0  0
 11 12  1  0  0  0  0
 11 13  1  0  0  0  0
 13 17  1  0  0  0  0
 13 18  1  0  0  0  0
 14 19  1  0  0  0  0
 14 20  1  0  0  0  0
M  CHG  1  11   1
M  END
>  <CHROM.0>
-59.55112654,-60.91367640,-52.38963228,-42.59500820,-175.49049380,-176.83721153
-67.48990757,-59.85764655,-168.62619092

>  <CHROM.1>
-79.85649608,156.38382190,62.13249505,71.66564401,-28.52753319,16.54041562
-16.25710296,-2.84060083,-0.01925867,3.09918004

>  <Name>
P129681588

>  <RI>
0

>  <Rbt.Current_Directory>
/home/fstefaniak/projects/zuza/docking/adenine/4TZX

>  <Rbt.Executable>
rbdock ($Id: //depot/dev/client3/rdock/2013.1/src/exe/rbdock.cxx#4 $)

>  <Rbt.Library>
libRbt.so (2013.1, Build901 2013/11/27)

>  <Rbt.Parameter_File>
/home/fstefaniak/progs/rDock//data/scripts/dock_solv.prm

>  <Rbt.Receptor>
4tzx.prm

>  <SCORE>
-44.3873

>  <SCORE.INTER>
-26.6065

>  <SCORE.INTER.CONST>
1

>  <SCORE.INTER.POLAR>
-3.68633

>  <SCORE.INTER.ROT>
3

>  <SCORE.INTER.SOLV>
19.6738

>  <SCORE.INTER.VDW>
-17.6079

>  <SCORE.INTER.norm>
-2.04665

>  <SCORE.INTRA>
3.04352

>  <SCORE.INTRA.DIHEDRAL>
0.497916

>  <SCORE.INTRA.DIHEDRAL.0>
3.73413

>  <SCORE.INTRA.POLAR>
0.825687

>  <SCORE.INTRA.POLAR.0>
-1.01119

>  <SCORE.INTRA.REPUL>
0

>  <SCORE.INTRA.REPUL.0>
0

>  <SCORE.INTRA.SOLV>
-0.556814

>  <SCORE.INTRA.SOLV.lig_0>
-28.5556

>  <SCORE.INTRA.VDW>
0.265635

>  <SCORE.INTRA.VDW.0>
-0.773546

>  <SCORE.INTRA.norm>
0.234117

>  <SCORE.RESTR>
0

>  <SCORE.RESTR.CAVITY>
0

>  <SCORE.RESTR.norm>
0

>  <SCORE.SYSTEM>
-20.8243

>  <SCORE.SYSTEM.CONST>
0

>  <SCORE.SYSTEM.DIHEDRAL>
4.70497

>  <SCORE.SYSTEM.POLAR>
-3.10858

>  <SCORE.SYSTEM.SOLV>
-0.100077

>  <SCORE.SYSTEM.VDW>
-5.05588

>  <SCORE.SYSTEM.norm>
-1.60187

>  <SCORE.heavy>
13

>  <SCORE.norm>
-3.41441

$$$$
P129686110
 OpenBabel12072022113D
libRbt.so/2013.1/901 2013/11/27
 15 16  0  0  0  0  0  0  0  0999 V2000
  -24.1261   12.5528  -15.6999 C   0  0  0  0  0  0  0  0  0  0  0  0
  -25.1402   13.6139  -15.2862 C   0  0  1  0  0  0  0  0  0  0  0  0
  -25.4577   14.4960  -16.4998 C   0  0  0  0  0  0  0  0  0  0  0  0
  -24.7432   15.4237  -16.8680 O   0  0  0  0  0  0  0  0  0  0  0  0
  -26.4413   14.0115  -17.3274 N   0  0  0  0  0  0  0  0  0  0  0  0
  -27.6602   13.3834  -16.7939 C   0  0  1  0  0  0  0  0  0  0  0  0
  -27.3472   12.5244  -15.5218 C   0  0  0  0  0  0  0  0  0  0  0  0
  -28.0724   11.6379  -15.0749 O   0  0  0  0  0  0  0  0  0  0  0  0
  -26.3318   12.9995  -14.7192 N   0  0  0  0  0  0  0  0  0  0  0  0
  -28.6283   14.4921  -16.3406 C   0  0  0  0  0  0  0  0  0  0  0  0
  -28.2757   12.6282  -17.9677 C   0  0  0  0  0  0  0  0  0  0  0  0
  -27.7707   11.2848  -18.4391 C   0  0  0  0  0  0  0  0  0  0  0  0
  -27.6057   12.4974  -19.3164 C   0  0  0  0  0  0  0  0  0  0  0  0
  -26.5579   14.5947  -18.1460 H   0  0  0  0  0  0  0  0  0  0  0  0
  -26.2117   12.4482  -13.8779 H   0  0  0  0  0  0  0  0  0  0  0  0
  2  1  1  6  0  0  0
  2  3  1  0  0  0  0
  2  9  1  0  0  0  0
  3  4  2  0  0  0  0
  3  5  1  0  0  0  0
  5  6  1  0  0  0  0
  5 14  1  0  0  0  0
  6  7  1  0  0  0  0
  6 11  1  0  0  0  0
  6 10  1  1  0  0  0
  7  8  2  0  0  0  0
  7  9  1  0  0  0  0
  9 15  1  0  0  0  0
 11 12  1  0  0  0  0
 11 13  1  0  0  0  0
 12 13  1  0  0  0  0
M  END
>  <CHROM.0>
-58.17293585,-77.53796202,59.84835221,-42.82919950,-60.99177327,-66.55653500
55.94089888,-174.40281523,-168.48749611

>  <CHROM.1>
78.88100431,-26.72107994,13.20201673,-16.58841514,0.31906694,0.62557129,1.94425320

>  <Name>
P129686110

>  <RI>
0

>  <Rbt.Current_Directory>
/home/fstefaniak/projects/zuza/docking/adenine/4TZX

>  <Rbt.Executable>
rbdock ($Id: //depot/dev/client3/rdock/2013.1/src/exe/rbdock.cxx#4 $)

>  <Rbt.Library>
libRbt.so (2013.1, Build901 2013/11/27)

>  <Rbt.Parameter_File>
/home/fstefaniak/progs/rDock//data/scripts/dock_solv.prm

>  <Rbt.Receptor>
4tzx.prm

>  <SCORE>
-36.4589

>  <SCORE.INTER>
-17.9051

>  <SCORE.INTER.CONST>
1

>  <SCORE.INTER.POLAR>
-2.74531

>  <SCORE.INTER.ROT>
1

>  <SCORE.INTER.SOLV>
10.4701

>  <SCORE.INTER.VDW>
-10.5424

>  <SCORE.INTER.norm>
-1.37732

>  <SCORE.INTRA>
0.050125

>  <SCORE.INTRA.DIHEDRAL>
-0.245259

>  <SCORE.INTRA.DIHEDRAL.0>
3.14242

>  <SCORE.INTRA.POLAR>
0

>  <SCORE.INTRA.POLAR.0>
0

>  <SCORE.INTRA.REPUL>
0

>  <SCORE.INTRA.REPUL.0>
0

>  <SCORE.INTRA.SOLV>
0.0614442

>  <SCORE.INTRA.SOLV.lig_0>
-13.2699

>  <SCORE.INTRA.VDW>
0.142032

>  <SCORE.INTRA.VDW.0>
-0.283232

>  <SCORE.INTRA.norm>
0.00385577

>  <SCORE.RESTR>
0.0128865

>  <SCORE.RESTR.CAVITY>
0.0128865

>  <SCORE.RESTR.norm>
0.000991269

>  <SCORE.SYSTEM>
-18.6168

>  <SCORE.SYSTEM.CONST>
0

>  <SCORE.SYSTEM.DIHEDRAL>
5.84284

>  <SCORE.SYSTEM.POLAR>
-3.04339

>  <SCORE.SYSTEM.SOLV>
-0.0790753

>  <SCORE.SYSTEM.VDW>
-4.18784

>  <SCORE.SYSTEM.norm>
-1.43206

>  <SCORE.heavy>
13

>  <SCORE.norm>
-2.80453

$$$$
P129686110
 OpenBabel12072022113D
libRbt.so/2013.1/901 2013/11/27
 15 16  0  0  0  0  0  0  0  0999 V2000
  -24.2166   12.8664  -13.9892 C   0  0  0  0  0  0  0  0  0  0  0  0
  -24.8686   12.2419  -15.2180 C   0  0  1  0  0  0  0  0  0  0  0  0
  -26.2999   11.8229  -14.8610 C   0  0  0  0  0  0  0  0  0  0  0  0
  -26.5736   10.7805  -14.2735 O   0  0  0  0  0  0  0  0  0  0  0  0
  -27.2417   12.8158  -14.9807 N   0  0  0  0  0  0  0  0  0  0  0  0
  -27.2304   13.7597  -16.1093 C   0  0  1  0  0  0  0  0  0  0  0  0
  -25.7670   14.1481  -16.5113 C   0  0  0  0  0  0  0  0  0  0  0  0
  -25.4567   15.1423  -17.1646 O   0  0  0  0  0  0  0  0  0  0  0  0
  -24.8234   13.1558  -16.3502 N   0  0  0  0  0  0  0  0  0  0  0  0
  -27.8478   13.0662  -17.3381 C   0  0  0  0  0  0  0  0  0  0  0  0
  -28.1286   14.9161  -15.6813 C   0  0  0  0  0  0  0  0  0  0  0  0
  -29.2007   15.4997  -16.5712 C   0  0  0  0  0  0  0  0  0  0  0  0
  -27.9890   16.3216  -16.2198 C   0  0  0  0  0  0  0  0  0  0  0  0
  -28.1510   12.5047  -14.6643 H   0  0  0  0  0  0  0  0  0  0  0  0
  -23.9081   13.4325  -16.6845 H   0  0  0  0  0  0  0  0  0  0  0  0
  2  1  1  1  0  0  0
  2  3  1  0  0  0  0
  2  9  1  0  0  0  0
  3  4  2  0  0  0  0
  3  5  1  0  0  0  0
  5  6  1  0  0  0  0
  5 14  1  0  0  0  0
  6  7  1  0  0  0  0
  6 11  1  0  0  0  0
  6 10  1  6  0  0  0
  7  8  2  0  0  0  0
  7  9  1  0  0  0  0
  9 15  1  0  0  0  0
 11 12  1  0  0  0  0
 11 13  1  0  0  0  0
 12 13  1  0  0  0  0
M  END
>  <CHROM.0>
-61.10465571,-64.00972110,-66.10992174,-42.47674646,-58.35531183,-61.86206642
-67.36538418,-57.32732785,-168.42385090

>  <CHROM.1>
-132.80161452,-26.56954791,13.56412013,-15.78820848,-0.95984456,0.02662956
-0.51943775

>  <Name>
P129686110

>  <RI>
0

>  <Rbt.Current_Directory>
/home/fstefaniak/projects/zuza/docking/adenine/4TZX

>  <Rbt.Executable>
rbdock ($Id: //depot/dev/client3/rdock/2013.1/src/exe/rbdock.cxx#4 $)

>  <Rbt.Library>
libRbt.so (2013.1, Build901 2013/11/27)

>  <Rbt.Parameter_File>
/home/fstefaniak/progs/rDock//data/scripts/dock_solv.prm

>  <Rbt.Receptor>
4tzx.prm

>  <SCORE>
-35.3784

>  <SCORE.INTER>
-16.5377

>  <SCORE.INTER.CONST>
1

>  <SCORE.INTER.POLAR>
-1.43383

>  <SCORE.INTER.ROT>
1

>  <SCORE.INTER.SOLV>
8.87777

>  <SCORE.INTER.VDW>
-13.4716

>  <SCORE.INTER.norm>
-1.27213

>  <SCORE.INTRA>
1.9891

>  <SCORE.INTRA.DIHEDRAL>
-0.976146

>  <SCORE.INTRA.DIHEDRAL.0>
3.14242

>  <SCORE.INTRA.POLAR>
0

>  <SCORE.INTRA.POLAR.0>
0

>  <SCORE.INTRA.REPUL>
0

>  <SCORE.INTRA.REPUL.0>
0

>  <SCORE.INTRA.SOLV>
-0.171703

>  <SCORE.INTRA.SOLV.lig_0>
-13.2699

>  <SCORE.INTRA.VDW>
2.56303

>  <SCORE.INTRA.VDW.0>
-0.283232

>  <SCORE.INTRA.norm>
0.153008

>  <SCORE.RESTR>
0.322625

>  <SCORE.RESTR.CAVITY>
0.322625

>  <SCORE.RESTR.norm>
0.0248173

>  <SCORE.SYSTEM>
-21.1524

>  <SCORE.SYSTEM.CONST>
0

>  <SCORE.SYSTEM.DIHEDRAL>
4.64259

>  <SCORE.SYSTEM.POLAR>
-3.05878

>  <SCORE.SYSTEM.SOLV>
0.183793

>  <SCORE.SYSTEM.VDW>
-5.51451

>  <SCORE.SYSTEM.norm>
-1.62711

>  <SCORE.heavy>
13

>  <SCORE.norm>
-2.72142

$$$$
P129686110
 OpenBabel12072022113D
libRbt.so/2013.1/901 2013/11/27
 15 16  0  0  0  0  0  0  0  0999 V2000
  -24.2381   12.9374  -14.0766 C   0  0  0  0  0  0  0  0  0  0  0  0
  -24.9170   12.3296  -15.2993 C   0  0  1  0  0  0  0  0  0  0  0  0
  -26.3336   11.8881  -14.9117 C   0  0  0  0  0  0  0  0  0  0  0  0
  -26.5802   10.8316  -14.3375 O   0  0  0  0  0  0  0  0  0  0  0  0
  -27.2886   12.8727  -14.9863 N   0  0  0  0  0  0  0  0  0  0  0  0
  -27.3181   13.8383  -16.0961 C   0  0  1  0  0  0  0  0  0  0  0  0
  -25.8704   14.2504  -16.5300 C   0  0  0  0  0  0  0  0  0  0  0  0
  -25.5884   15.2604  -17.1719 O   0  0  0  0  0  0  0  0  0  0  0  0
  -24.9124   13.2656  -16.4141 N   0  0  0  0  0  0  0  0  0  0  0  0
  -27.9616   13.1620  -17.3210 C   0  0  0  0  0  0  0  0  0  0  0  0
  -28.2162   14.9763  -15.6213 C   0  0  0  0  0  0  0  0  0  0  0  0
  -29.3157   15.5679  -16.4716 C   0  0  0  0  0  0  0  0  0  0  0  0
  -28.1034   16.3943  -16.1328 C   0  0  0  0  0  0  0  0  0  0  0  0
  -28.1856   12.5456  -14.6515 H   0  0  0  0  0  0  0  0  0  0  0  0
  -24.0096   13.5587  -16.7676 H   0  0  0  0  0  0  0  0  0  0  0  0
  2  1  1  1  0  0  0
  2  3  1  0  0  0  0
  2  9  1  0  0  0  0
  3  4  2  0  0  0  0
  3  5  1  0  0  0  0
  5  6  1  0  0  0  0
  5 14  1  0  0  0  0
  6  7  1  0  0  0  0
  6 11  1  0  0  0  0
  6 10  1  6  0  0  0
  7  8  2  0  0  0  0
  7  9  1  0  0  0  0
  9 15  1  0  0  0  0
 11 12  1  0  0  0  0
 11 13  1  0  0  0  0
 12 13  1  0  0  0  0
M  END
>  <CHROM.0>
-61.72963935,-170.33305378,-67.93939725,-43.48603029,-58.97781948,-63.04676442
-67.56654912,-60.91057044,-169.06500226

>  <CHROM.1>
-132.98237249,-26.64623518,13.64410562,-15.79686159,-0.93771641,0.04510762
-0.50047213

>  <Name>
P129686110

>  <RI>
0

>  <Rbt.Current_Directory>
/home/fstefaniak/projects/zuza/docking/adenine/4TZX

>  <Rbt.Executable>
rbdock ($Id: //depot/dev/client3/rdock/2013.1/src/exe/rbdock.cxx#4 $)

>  <Rbt.Library>
libRbt.so (2013.1, Build901 2013/11/27)

>  <Rbt.Parameter_File>
/home/fstefaniak/progs/rDock//data/scripts/dock_solv.prm

>  <Rbt.Receptor>
4tzx.prm

>  <SCORE>
-34.8723

>  <SCORE.INTER>
-16.1967

>  <SCORE.INTER.CONST>
1

>  <SCORE.INTER.POLAR>
-1.43208

>  <SCORE.INTER.ROT>
1

>  <SCORE.INTER.SOLV>
9.05397

>  <SCORE.INTER.VDW>
-13.3089

>  <SCORE.INTER.norm>
-1.2459

>  <SCORE.INTRA>
1.98407

>  <SCORE.INTRA.DIHEDRAL>
-0.973044

>  <SCORE.INTRA.DIHEDRAL.0>
3.14242

>  <SCORE.INTRA.POLAR>
0

>  <SCORE.INTRA.POLAR.0>
0

>  <SCORE.INTRA.REPUL>
0

>  <SCORE.INTRA.REPUL.0>
0

>  <SCORE.INTRA.SOLV>
-0.171113

>  <SCORE.INTRA.SOLV.lig_0>
-13.2699

>  <SCORE.INTRA.VDW>
2.55615

>  <SCORE.INTRA.VDW.0>
-0.283232

>  <SCORE.INTRA.norm>
0.152621

>  <SCORE.RESTR>
0.339328

>  <SCORE.RESTR.CAVITY>
0.339328

>  <SCORE.RESTR.norm>
0.0261021

>  <SCORE.SYSTEM>
-20.999

>  <SCORE.SYSTEM.CONST>
0

>  <SCORE.SYSTEM.DIHEDRAL>
4.92811

>  <SCORE.SYSTEM.POLAR>
-3.03087

>  <SCORE.SYSTEM.SOLV>
0.136862

>  <SCORE.SYSTEM.VDW>
-5.58475

>  <SCORE.SYSTEM.norm>
-1.61531

>  <SCORE.heavy>
13

>  <SCORE.norm>
-2.68249

$$$$
P129686112
 OpenBabel12072022113D
libRbt.so/2013.1/901 2013/11/27
 15 16  0  0  0  0  0  0  0  0999 V2000
  -25.0519   10.7122  -13.9796 C   0  0  0  0  0  0  0  0  0  0  0  0
  -25.2854   12.1578  -14.4059 C   0  0  1  0  0  0  0  0  0  0  0  0
  -24.5966   12.4023  -15.7569 C   0  0  0  0  0  0  0  0  0  0  0  0
  -23.3896   12.5986  -15.8715 O   0  0  0  0  0  0  0  0  0  0  0  0
  -25.3538   12.0968  -16.8622 N   0  0  0  0  0  0  0  0  0  0  0  0
  -26.7857   12.4164  -16.9176 C   0  0  2  0  0  0  0  0  0  0  0  0
  -27.4764   12.1591  -15.5400 C   0  0  0  0  0  0  0  0  0  0  0  0
  -28.6772   11.9379  -15.3979 O   0  0  0  0  0  0  0  0  0  0  0  0
  -26.7112   12.4523  -14.4311 N   0  0  0  0  0  0  0  0  0  0  0  0
  -27.4345   11.4921  -17.9606 C   0  0  0  0  0  0  0  0  0  0  0  0
  -26.9063   13.8648  -17.3940 C   0  0  0  0  0  0  0  0  0  0  0  0
  -27.4615   14.9499  -16.4973 C   0  0  0  0  0  0  0  0  0  0  0  0
  -26.0173   14.9909  -16.9096 C   0  0  0  0  0  0  0  0  0  0  0  0
  -24.8309   12.2194  -17.7202 H   0  0  0  0  0  0  0  0  0  0  0  0
  -27.2209   12.3432  -13.5631 H   0  0  0  0  0  0  0  0  0  0  0  0
  2  1  1  6  0  0  0
  2  3  1  0  0  0  0
  2  9  1  0  0  0  0
  3  4  2  0  0  0  0
  3  5  1  0  0  0  0
  5  6  1  0  0  0  0
  5 14  1  0  0  0  0
  6  7  1  0  0  0  0
  6 10  1  6  0  0  0
  6 11  1  0  0  0  0
  7  8  2  0  0  0  0
  7  9  1  0  0  0  0
  9 15  1  0  0  0  0
 11 12  1  0  0  0  0
 11 13  1  0  0  0  0
 12 13  1  0  0  0  0
M  END
>  <CHROM.0>
-59.31012723,-61.77256508,-65.57517898,-43.94408931,-56.25261803,-176.81729452
-66.23524135,-58.99932910,-169.27975102

>  <CHROM.1>
-114.47049308,-26.23539368,12.61051228,-15.98077818,0.76364865,0.11014055
2.39826760

>  <Name>
P129686112

>  <RI>
0

>  <Rbt.Current_Directory>
/home/fstefaniak/projects/zuza/docking/adenine/4TZX

>  <Rbt.Executable>
rbdock ($Id: //depot/dev/client3/rdock/2013.1/src/exe/rbdock.cxx#4 $)

>  <Rbt.Library>
libRbt.so (2013.1, Build901 2013/11/27)

>  <Rbt.Parameter_File>
/home/fstefaniak/progs/rDock//data/scripts/dock_solv.prm

>  <Rbt.Receptor>
4tzx.prm

>  <SCORE>
-39.3275

>  <SCORE.INTER>
-17.5413

>  <SCORE.INTER.CONST>
1

>  <SCORE.INTER.POLAR>
-2.18105

>  <SCORE.INTER.ROT>
1

>  <SCORE.INTER.SOLV>
7.73346

>  <SCORE.INTER.VDW>
-11.2685

>  <SCORE.INTER.norm>
-1.34933

>  <SCORE.INTRA>
-0.826983

>  <SCORE.INTRA.DIHEDRAL>
-1.16913

>  <SCORE.INTRA.DIHEDRAL.0>
3.20552

>  <SCORE.INTRA.POLAR>
0

>  <SCORE.INTRA.POLAR.0>
0

>  <SCORE.INTRA.REPUL>
0

>  <SCORE.INTRA.REPUL.0>
0

>  <SCORE.INTRA.SOLV>
0.304979

>  <SCORE.INTRA.SOLV.lig_0>
-13.0716

>  <SCORE.INTRA.VDW>
-0.394907

>  <SCORE.INTRA.VDW.0>
-0.348237

>  <SCORE.INTRA.norm>
-0.0636141

>  <SCORE.RESTR>
0.00159296

>  <SCORE.RESTR.CAVITY>
0.00159296

>  <SCORE.RESTR.norm>
0.000122535

>  <SCORE.SYSTEM>
-20.9608

>  <SCORE.SYSTEM.CONST>
0

>  <SCORE.SYSTEM.DIHEDRAL>
4.24519

>  <SCORE.SYSTEM.POLAR>
-3.03279

>  <SCORE.SYSTEM.SOLV>
0.073934

>  <SCORE.SYSTEM.VDW>
-5.30426

>  <SCORE.SYSTEM.norm>
-1.61237

>  <SCORE.heavy>
13

>  <SCORE.norm>
-3.02519

$$$$
P129686112
 OpenBabel12072022113D
libRbt.so/2013.1/901 2013/11/27
 15 16  0  0  0  0  0  0  0  0999 V2000
  -24.0581   10.7716  -13.8172 C   0  0  0  0  0  0  0  0  0  0  0  0
  -24.3298   12.2078  -14.2526 C   0  0  1  0  0  0  0  0  0  0  0  0
  -23.8513   12.3948  -15.7001 C   0  0  0  0  0  0  0  0  0  0  0  0
  -22.6728   12.5612  -16.0035 O   0  0  0  0  0  0  0  0  0  0  0  0
  -24.7732   12.0712  -16.6664 N   0  0  0  0  0  0  0  0  0  0  0  0
  -26.1913   12.4199  -16.5145 C   0  0  2  0  0  0  0  0  0  0  0  0
  -26.6679   12.2209  -15.0399 C   0  0  0  0  0  0  0  0  0  0  0  0
  -27.8365   12.0304  -14.7095 O   0  0  0  0  0  0  0  0  0  0  0  0
  -25.7377   12.5322  -14.0709 N   0  0  0  0  0  0  0  0  0  0  0  0
  -27.0069   11.4776  -17.4145 C   0  0  0  0  0  0  0  0  0  0  0  0
  -26.3591   13.8549  -17.0164 C   0  0  0  0  0  0  0  0  0  0  0  0
  -27.0142   14.9204  -16.1648 C   0  0  0  0  0  0  0  0  0  0  0  0
  -25.5542   15.0299  -16.5022 C   0  0  0  0  0  0  0  0  0  0  0  0
  -24.3854   12.1555  -17.5975 H   0  0  0  0  0  0  0  0  0  0  0  0
  -26.1108   12.4614  -13.1323 H   0  0  0  0  0  0  0  0  0  0  0  0
  2  1  1  6  0  0  0
  2  3  1  0  0  0  0
  2  9  1  0  0  0  0
  3  4  2  0  0  0  0
  3  5  1  0  0  0  0
  5  6  1  0  0  0  0
  5 14  1  0  0  0  0
  6  7  1  0  0  0  0
  6 10  1  6  0  0  0
  6 11  1  0  0  0  0
  7  8  2  0  0  0  0
  7  9  1  0  0  0  0
  9 15  1  0  0  0  0
 11 12  1  0  0  0  0
 11 13  1  0  0  0  0
 12 13  1  0  0  0  0
M  END
>  <CHROM.0>
-60.36117642,41.25248072,-66.65779812,-42.30350206,-175.13671954,-60.37747365
-66.35235052,-173.67752554,-169.00788875

>  <CHROM.1>
-126.93594733,-25.53428032,12.63093550,-15.66948999,0.64495238,-0.03339988
2.37134336

>  <Name>
P129686112

>  <RI>
0

>  <Rbt.Current_Directory>
/home/fstefaniak/projects/zuza/docking/adenine/4TZX

>  <Rbt.Executable>
rbdock ($Id: //depot/dev/client3/rdock/2013.1/src/exe/rbdock.cxx#4 $)

>  <Rbt.Library>
libRbt.so (2013.1, Build901 2013/11/27)

>  <Rbt.Parameter_File>
/home/fstefaniak/progs/rDock//data/scripts/dock_solv.prm

>  <Rbt.Receptor>
4tzx.prm

>  <SCORE>
-36.9263

>  <SCORE.INTER>
-16.6087

>  <SCORE.INTER.CONST>
1

>  <SCORE.INTER.POLAR>
-2.53234

>  <SCORE.INTER.ROT>
1

>  <SCORE.INTER.SOLV>
7.64195

>  <SCORE.INTER.VDW>
-9.4453

>  <SCORE.INTER.norm>
-1.27759

>  <SCORE.INTRA>
-0.895887

>  <SCORE.INTRA.DIHEDRAL>
-1.14561

>  <SCORE.INTRA.DIHEDRAL.0>
3.20552

>  <SCORE.INTRA.POLAR>
0

>  <SCORE.INTRA.POLAR.0>
0

>  <SCORE.INTRA.REPUL>
0

>  <SCORE.INTRA.REPUL.0>
0

>  <SCORE.INTRA.SOLV>
0.278271

>  <SCORE.INTRA.SOLV.lig_0>
-13.0716

>  <SCORE.INTRA.VDW>
-0.462216

>  <SCORE.INTRA.VDW.0>
-0.348237

>  <SCORE.INTRA.norm>
-0.0689144

>  <SCORE.RESTR>
0.756733

>  <SCORE.RESTR.CAVITY>
0.756733

>  <SCORE.RESTR.norm>
0.0582102

>  <SCORE.SYSTEM>
-20.1785

>  <SCORE.SYSTEM.CONST>
0

>  <SCORE.SYSTEM.DIHEDRAL>
6.29104

>  <SCORE.SYSTEM.POLAR>
-3.16027

>  <SCORE.SYSTEM.SOLV>
-0.00815227

>  <SCORE.SYSTEM.VDW>
-5.01235

>  <SCORE.SYSTEM.norm>
-1.55219

>  <SCORE.heavy>
13

>  <SCORE.norm>
-2.84048

$$$$
P129686112
 OpenBabel12072022113D
libRbt.so/2013.1/901 2013/11/27
 15 16  0  0  0  0  0  0  0  0999 V2000
  -25.4343   16.0881  -17.0706 C   0  0  0  0  0  0  0  0  0  0  0  0
  -26.0814   15.3601  -15.8970 C   0  0  1  0  0  0  0  0  0  0  0  0
  -27.5714   15.1414  -16.1991 C   0  0  0  0  0  0  0  0  0  0  0  0
  -28.4193   16.0217  -16.0773 O   0  0  0  0  0  0  0  0  0  0  0  0
  -27.8637   13.9939  -16.8963 N   0  0  0  0  0  0  0  0  0  0  0  0
  -27.1780   12.7289  -16.6044 C   0  0  2  0  0  0  0  0  0  0  0  0
  -25.6628   12.9630  -16.3038 C   0  0  0  0  0  0  0  0  0  0  0  0
  -24.7899   12.1080  -16.4381 O   0  0  0  0  0  0  0  0  0  0  0  0
  -25.3686   14.1217  -15.6167 N   0  0  0  0  0  0  0  0  0  0  0  0
  -27.2883   11.8351  -17.8502 C   0  0  0  0  0  0  0  0  0  0  0  0
  -27.9288   12.0653  -15.4488 C   0  0  0  0  0  0  0  0  0  0  0  0
  -27.7716   10.5914  -15.1448 C   0  0  0  0  0  0  0  0  0  0  0  0
  -27.2706   11.6120  -14.1626 C   0  0  0  0  0  0  0  0  0  0  0  0
  -28.8490   13.9317  -17.1194 H   0  0  0  0  0  0  0  0  0  0  0  0
  -24.3876   14.1972  -15.3774 H   0  0  0  0  0  0  0  0  0  0  0  0
  2  1  1  6  0  0  0
  2  3  1  0  0  0  0
  2  9  1  0  0  0  0
  3  4  2  0  0  0  0
  3  5  1  0  0  0  0
  5  6  1  0  0  0  0
  5 14  1  0  0  0  0
  6  7  1  0  0  0  0
  6 10  1  6  0  0  0
  6 11  1  0  0  0  0
  7  8  2  0  0  0  0
  7  9  1  0  0  0  0
  9 15  1  0  0  0  0
 11 12  1  0  0  0  0
 11 13  1  0  0  0  0
 12 13  1  0  0  0  0
M  END
>  <CHROM.0>
-60.79855550,-63.04259838,60.43216917,-43.19222864,-177.22300117,-64.36874463
55.23568296,-177.23526160,-168.80982652

>  <CHROM.1>
161.79251005,-26.80413855,13.45049633,-16.14741304,-1.45752691,-0.16113971
2.97038120

>  <Name>
P129686112

>  <RI>
0

>  <Rbt.Current_Directory>
/home/fstefaniak/projects/zuza/docking/adenine/4TZX

>  <Rbt.Executable>
rbdock ($Id: //depot/dev/client3/rdock/2013.1/src/exe/rbdock.cxx#4 $)

>  <Rbt.Library>
libRbt.so (2013.1, Build901 2013/11/27)

>  <Rbt.Parameter_File>
/home/fstefaniak/progs/rDock//data/scripts/dock_solv.prm

>  <Rbt.Receptor>
4tzx.prm

>  <SCORE>
-32.1103

>  <SCORE.INTER>
-14.2116

>  <SCORE.INTER.CONST>
1

>  <SCORE.INTER.POLAR>
-1.24874

>  <SCORE.INTER.ROT>
1

>  <SCORE.INTER.SOLV>
7.97812

>  <SCORE.INTER.VDW>
-12.238

>  <SCORE.INTER.norm>
-1.0932

>  <SCORE.INTRA>
0.767471

>  <SCORE.INTRA.DIHEDRAL>
-0.260353

>  <SCORE.INTRA.DIHEDRAL.0>
3.20552

>  <SCORE.INTRA.POLAR>
0

>  <SCORE.INTRA.POLAR.0>
0

>  <SCORE.INTRA.REPUL>
0

>  <SCORE.INTRA.REPUL.0>
0

>  <SCORE.INTRA.SOLV>
-0.122318

>  <SCORE.INTRA.SOLV.lig_0>
-13.0716

>  <SCORE.INTRA.VDW>
0.958806

>  <SCORE.INTRA.VDW.0>
-0.348237

>  <SCORE.INTRA.norm>
0.0590363

>  <SCORE.RESTR>
0.677478

>  <SCORE.RESTR.CAVITY>
0.677478

>  <SCORE.RESTR.norm>
0.0521137

>  <SCORE.SYSTEM>
-19.3436

>  <SCORE.SYSTEM.CONST>
0

>  <SCORE.SYSTEM.DIHEDRAL>
4.25319

>  <SCORE.SYSTEM.POLAR>
-3.01987

>  <SCORE.SYSTEM.SOLV>
-0.24961

>  <SCORE.SYSTEM.VDW>
-4.16403

>  <SCORE.SYSTEM.norm>
-1.48797

>  <SCORE.heavy>
13

>  <SCORE.norm>
-2.47002

$$$$
P129686358
 OpenBabel12072022113D
libRbt.so/2013.1/901 2013/11/27
 14 14  0  0  0  0  0  0  0  0999 V2000
  -24.0407   11.4221  -14.3375 C   0  0  0  0  0  0  0  0  0  0  0  0
  -24.5597   11.9256  -15.6759 C   0  0  0  0  0  0  0  0  0  0  0  0
  -25.0048   13.3868  -15.5844 C   0  0  0  0  0  0  0  0  0  0  0  0
  -25.4843   13.9652  -16.9275 C   0  0  2  0  0  0  0  0  0  0  0  0
  -25.7936   15.4677  -16.7539 C   0  0  0  0  0  0  0  0  0  0  0  0
  -24.8847   16.3029  -16.7529 O   0  0  0  0  0  0  0  0  0  0  0  0
  -27.0387   15.8892  -16.3858 N   0  0  0  0  0  0  0  0  0  0  0  0
  -28.3021   15.2205  -16.6218 C   0  0  0  0  0  0  0  0  0  0  0  0
  -28.3693   13.8011  -16.1010 C   0  0  0  0  0  0  0  0  0  0  0  0
  -27.7510   12.8621  -17.0961 C   0  0  0  0  0  0  0  0  0  0  0  0
  -28.3373   11.8608  -17.5004 O   0  0  0  0  0  0  0  0  0  0  0  0
  -26.5136   13.1570  -17.5778 N   0  0  0  0  0  0  0  0  0  0  0  0
  -27.0701   16.8995  -16.3012 H   0  0  0  0  0  0  0  0  0  0  0  0
  -26.1824   12.4394  -18.2127 H   0  0  0  0  0  0  0  0  0  0  0  0
  1  2  1  0  0  0  0
  2  3  1  0  0  0  0
  4  5  1  0  0  0  0
  4 12  1  0  0  0  0
  4  3  1  1  0  0  0
  5  6  2  0  0  0  0
  5  7  1  0  0  0  0
  7  8  1  0  0  0  0
  7 13  1  0  0  0  0
  8  9  1  0  0  0  0
  9 10  1  0  0  0  0
 10 11  2  0  0  0  0
 10 12  1  0  0  0  0
 12 14  1  0  0  0  0
M  END
>  <CHROM.0>
-59.74480876,-167.34766594,-68.31861258,-43.02317128,-174.36778299,-60.88324136
-65.36089536,-58.00777703,-168.30283198

>  <CHROM.1>
177.57247781,-175.19705244,-26.33075513,13.76502543,-16.44152458,-0.81248066
-0.37099866,-0.13269988

>  <Name>
P129686358

>  <RI>
0

>  <Rbt.Current_Directory>
/home/fstefaniak/projects/zuza/docking/adenine/4TZX

>  <Rbt.Executable>
rbdock ($Id: //depot/dev/client3/rdock/2013.1/src/exe/rbdock.cxx#4 $)

>  <Rbt.Library>
libRbt.so (2013.1, Build901 2013/11/27)

>  <Rbt.Parameter_File>
/home/fstefaniak/progs/rDock//data/scripts/dock_solv.prm

>  <Rbt.Receptor>
4tzx.prm

>  <SCORE>
-35.2626

>  <SCORE.INTER>
-14.3552

>  <SCORE.INTER.CONST>
1

>  <SCORE.INTER.POLAR>
-1.43819

>  <SCORE.INTER.ROT>
2

>  <SCORE.INTER.SOLV>
9.99921

>  <SCORE.INTER.VDW>
-13.0426

>  <SCORE.INTER.norm>
-1.19626

>  <SCORE.INTRA>
0.00750038

>  <SCORE.INTRA.DIHEDRAL>
0.00980865

>  <SCORE.INTRA.DIHEDRAL.0>
0.447682

>  <SCORE.INTRA.POLAR>
0

>  <SCORE.INTRA.POLAR.0>
0

>  <SCORE.INTRA.REPUL>
0

>  <SCORE.INTRA.REPUL.0>
0

>  <SCORE.INTRA.SOLV>
-0.000518317

>  <SCORE.INTRA.SOLV.lig_0>
-15.0362

>  <SCORE.INTRA.VDW>
0.00285521

>  <SCORE.INTRA.VDW.0>
-0.689545

>  <SCORE.INTRA.norm>
0.000625031

>  <SCORE.RESTR>
0

>  <SCORE.RESTR.CAVITY>
0

>  <SCORE.RESTR.norm>
0

>  <SCORE.SYSTEM>
-20.9149

>  <SCORE.SYSTEM.CONST>
0

>  <SCORE.SYSTEM.DIHEDRAL>
5.37056

>  <SCORE.SYSTEM.POLAR>
-3.04849

>  <SCORE.SYSTEM.SOLV>
-0.0336209

>  <SCORE.SYSTEM.VDW>
-5.56062

>  <SCORE.SYSTEM.norm>
-1.74291

>  <SCORE.heavy>
12

>  <SCORE.norm>
-2.93855

$$$$
P129686358
 OpenBabel12072022113D
libRbt.so/2013.1/901 2013/11/27
 14 14  0  0  0  0  0  0  0  0999 V2000
  -28.1855   13.6914  -16.9160 C   0  0  0  0  0  0  0  0  0  0  0  0
  -27.9559   15.1268  -16.4678 C   0  0  0  0  0  0  0  0  0  0  0  0
  -29.2103   15.9791  -16.6709 C   0  0  0  0  0  0  0  0  0  0  0  0
  -29.0372   17.4398  -16.2182 C   0  0  2  0  0  0  0  0  0  0  0  0
  -28.4355   17.4648  -14.7967 C   0  0  0  0  0  0  0  0  0  0  0  0
  -27.2250   17.2984  -14.6211 O   0  0  0  0  0  0  0  0  0  0  0  0
  -29.2404   17.4557  -13.6943 N   0  0  0  0  0  0  0  0  0  0  0  0
  -30.5979   17.9509  -13.5891 C   0  0  0  0  0  0  0  0  0  0  0  0
  -31.5635   17.3573  -14.5920 C   0  0  0  0  0  0  0  0  0  0  0  0
  -31.4576   18.0899  -15.8983 C   0  0  0  0  0  0  0  0  0  0  0  0
  -32.4428   18.5514  -16.4695 O   0  0  0  0  0  0  0  0  0  0  0  0
  -30.2226   18.2651  -16.4407 N   0  0  0  0  0  0  0  0  0  0  0  0
  -28.6900   17.4590  -12.8423 H   0  0  0  0  0  0  0  0  0  0  0  0
  -30.2746   18.7394  -17.3351 H   0  0  0  0  0  0  0  0  0  0  0  0
  1  2  1  0  0  0  0
  2  3  1  0  0  0  0
  4  5  1  0  0  0  0
  4 12  1  0  0  0  0
  4  3  1  1  0  0  0
  5  6  2  0  0  0  0
  5  7  1  0  0  0  0
  7  8  1  0  0  0  0
  7 13  1  0  0  0  0
  8  9  1  0  0  0  0
  9 10  1  0  0  0  0
 10 11  2  0  0  0  0
 10 12  1  0  0  0  0
 12 14  1  0  0  0  0
M  END
>  <CHROM.0>
-60.36303507,-61.26345924,-65.06959733,-42.94949414,-58.28020786,-66.91527191
-66.44267179,-60.60174153,-168.93604666

>  <CHROM.1>
179.36220103,-49.37995123,-29.62156502,17.04890948,-15.53489739,0.56786710
0.48924957,-2.23170284

>  <Name>
P129686358

>  <RI>
0

>  <Rbt.Current_Directory>
/home/fstefaniak/projects/zuza/docking/adenine/4TZX

>  <Rbt.Executable>
rbdock ($Id: //depot/dev/client3/rdock/2013.1/src/exe/rbdock.cxx#4 $)

>  <Rbt.Library>
libRbt.so (2013.1, Build901 2013/11/27)

>  <Rbt.Parameter_File>
/home/fstefaniak/progs/rDock//data/scripts/dock_solv.prm

>  <Rbt.Receptor>
4tzx.prm

>  <SCORE>
-31.7288

>  <SCORE.INTER>
-11.5106

>  <SCORE.INTER.CONST>
1

>  <SCORE.INTER.POLAR>
-1.53479

>  <SCORE.INTER.ROT>
2

>  <SCORE.INTER.SOLV>
13.5535

>  <SCORE.INTER.VDW>
-12.009

>  <SCORE.INTER.norm>
-0.959221

>  <SCORE.INTRA>
0.987365

>  <SCORE.INTRA.DIHEDRAL>
0.271263

>  <SCORE.INTRA.DIHEDRAL.0>
0.447682

>  <SCORE.INTRA.POLAR>
0

>  <SCORE.INTRA.POLAR.0>
0

>  <SCORE.INTRA.REPUL>
0

>  <SCORE.INTRA.REPUL.0>
0

>  <SCORE.INTRA.SOLV>
0.127148

>  <SCORE.INTRA.SOLV.lig_0>
-15.0362

>  <SCORE.INTRA.VDW>
0.78816

>  <SCORE.INTRA.VDW.0>
-0.689545

>  <SCORE.INTRA.norm>
0.0822804

>  <SCORE.RESTR>
0

>  <SCORE.RESTR.CAVITY>
0

>  <SCORE.RESTR.norm>
0

>  <SCORE.SYSTEM>
-21.2055

>  <SCORE.SYSTEM.CONST>
0

>  <SCORE.SYSTEM.DIHEDRAL>
4.51164

>  <SCORE.SYSTEM.POLAR>
-3.05295

>  <SCORE.SYSTEM.SOLV>
0.174999

>  <SCORE.SYSTEM.VDW>
-5.52268

>  <SCORE.SYSTEM.norm>
-1.76712

>  <SCORE.heavy>
12

>  <SCORE.norm>
-2.64406

$$$$
P129686358
 OpenBabel12072022113D
libRbt.so/2013.1/901 2013/11/27
 14 14  0  0  0  0  0  0  0  0999 V2000
  -27.2820   13.8346  -16.2732 C   0  0  0  0  0  0  0  0  0  0  0  0
  -28.6820   14.1082  -16.8016 C   0  0  0  0  0  0  0  0  0  0  0  0
  -29.3994   15.1608  -15.9537 C   0  0  0  0  0  0  0  0  0  0  0  0
  -28.7456   16.5522  -16.0241 C   0  0  2  0  0  0  0  0  0  0  0  0
  -29.1650   17.3755  -14.7874 C   0  0  0  0  0  0  0  0  0  0  0  0
  -28.6113   17.2036  -13.6976 O   0  0  0  0  0  0  0  0  0  0  0  0
  -30.2881   18.1511  -14.8094 N   0  0  0  0  0  0  0  0  0  0  0  0
  -30.9101   18.7703  -15.9622 C   0  0  0  0  0  0  0  0  0  0  0  0
  -31.2637   17.8103  -17.0775 C   0  0  0  0  0  0  0  0  0  0  0  0
  -30.0576   17.5573  -17.9351 C   0  0  0  0  0  0  0  0  0  0  0  0
  -30.0869   17.6852  -19.1568 O   0  0  0  0  0  0  0  0  0  0  0  0
  -28.8951   17.2031  -17.3240 N   0  0  0  0  0  0  0  0  0  0  0  0
  -30.4292   18.6118  -13.9168 H   0  0  0  0  0  0  0  0  0  0  0  0
  -28.1608   17.0243  -17.9996 H   0  0  0  0  0  0  0  0  0  0  0  0
  1  2  1  0  0  0  0
  2  3  1  0  0  0  0
  4  5  1  0  0  0  0
  4 12  1  0  0  0  0
  4  3  1  6  0  0  0
  5  6  2  0  0  0  0
  5  7  1  0  0  0  0
  7  8  1  0  0  0  0
  7 13  1  0  0  0  0
  8  9  1  0  0  0  0
  9 10  1  0  0  0  0
 10 11  2  0  0  0  0
 10 12  1  0  0  0  0
 12 14  1  0  0  0  0
M  END
>  <CHROM.0>
-59.67818370,-60.31053980,-68.10601075,-42.34888773,-176.60251105,-60.80484577
-66.76905730,-62.31975274,-167.97408171

>  <CHROM.1>
65.35557845,-158.68424476,-29.43220937,16.77944003,-16.31567412,0.09310797
0.98581309,-1.88925139

>  <Name>
P129686358

>  <RI>
0

>  <Rbt.Current_Directory>
/home/fstefaniak/projects/zuza/docking/adenine/4TZX

>  <Rbt.Executable>
rbdock ($Id: //depot/dev/client3/rdock/2013.1/src/exe/rbdock.cxx#4 $)

>  <Rbt.Library>
libRbt.so (2013.1, Build901 2013/11/27)

>  <Rbt.Parameter_File>
/home/fstefaniak/progs/rDock//data/scripts/dock_solv.prm

>  <Rbt.Receptor>
4tzx.prm

>  <SCORE>
-31.7063

>  <SCORE.INTER>
-11.5727

>  <SCORE.INTER.CONST>
1

>  <SCORE.INTER.POLAR>
-1.70324

>  <SCORE.INTER.ROT>
2

>  <SCORE.INTER.SOLV>
14.011

>  <SCORE.INTER.VDW>
-11.6414

>  <SCORE.INTER.norm>
-0.964392

>  <SCORE.INTRA>
1.11538

>  <SCORE.INTRA.DIHEDRAL>
1.32604

>  <SCORE.INTRA.DIHEDRAL.0>
0.447682

>  <SCORE.INTRA.POLAR>
0

>  <SCORE.INTRA.POLAR.0>
0

>  <SCORE.INTRA.REPUL>
0

>  <SCORE.INTRA.REPUL.0>
0

>  <SCORE.INTRA.SOLV>
0.0908009

>  <SCORE.INTRA.SOLV.lig_0>
-15.0362

>  <SCORE.INTRA.VDW>
0.406962

>  <SCORE.INTRA.VDW.0>
-0.689545

>  <SCORE.INTRA.norm>
0.0929486

>  <SCORE.RESTR>
0

>  <SCORE.RESTR.CAVITY>
0

>  <SCORE.RESTR.norm>
0

>  <SCORE.SYSTEM>
-21.2489

>  <SCORE.SYSTEM.CONST>
0

>  <SCORE.SYSTEM.DIHEDRAL>
4.73244

>  <SCORE.SYSTEM.POLAR>
-3.05538

>  <SCORE.SYSTEM.SOLV>
-0.003655

>  <SCORE.SYSTEM.VDW>
-5.55761

>  <SCORE.SYSTEM.norm>
-1.77074

>  <SCORE.heavy>
12

>  <SCORE.norm>
-2.64219

$$$$
P129694981
 OpenBabel12072022113D
libRbt.so/2013.1/901 2013/11/27
 17 18  0  0  0  0  0  0  0  0999 V2000
  -27.2890   13.6290  -17.3090 C   0  0  0  0  0  0  0  0  0  0  0  0
  -28.4204   14.4112  -16.6606 C   0  0  0  0  0  0  0  0  0  0  0  0
  -27.7767   15.6030  -16.1256 N   0  0  0  0  0  0  0  0  0  0  0  0
  -26.3340   15.4235  -16.0668 C   0  0  0  0  0  0  0  0  0  0  0  0
  -26.0969   13.9536  -16.4174 C   0  0  2  0  0  0  0  0  0  0  0  0
  -24.8842   13.7336  -17.1157 O   0  0  0  0  0  0  0  0  0  0  0  0
  -28.3655   16.7155  -15.5604 C   0  0  0  0  0  0  0  0  0  0  0  0
  -27.6641   17.5757  -15.0174 O   0  0  0  0  0  0  0  0  0  0  0  0
  -29.9079   16.8688  -15.6028 C   0  0  2  0  0  0  0  0  0  0  0  0
  -30.4392   17.3958  -16.9265 C   0  0  0  0  0  0  0  0  0  0  0  0
  -31.7230   18.1103  -16.5475 C   0  0  0  0  0  0  0  0  0  0  0  0
  -31.6402   18.4503  -15.1583 O   0  0  0  0  0  0  0  0  0  0  0  0
  -30.3616   18.0053  -14.6708 C   0  0  0  0  0  0  0  0  0  0  0  0
  -30.5776   15.5916  -15.2275 N   0  0  0  0  0  0  0  0  0  0  0  0
  -24.1530   13.9470  -16.5100 H   0  0  0  0  0  0  0  0  0  0  0  0
  -30.8200   15.0978  -16.0901 H   0  0  0  0  0  0  0  0  0  0  0  0
  -31.4786   15.8232  -14.8037 H   0  0  0  0  0  0  0  0  0  0  0  0
  1  2  1  0  0  0  0
  1  5  1  0  0  0  0
  2  3  1  0  0  0  0
  3  4  1  0  0  0  0
  3  7  1  0  0  0  0
  4  5  1  0  0  0  0
  5  6  1  6  0  0  0
  6 15  1  0  0  0  0
  7  8  2  0  0  0  0
  9 10  1  0  0  0  0
  9 13  1  0  0  0  0
  9 14  1  0  0  0  0
  9  7  1  6  0  0  0
 10 11  1  0  0  0  0
 11 12  1  0  0  0  0
 12 13  1  0  0  0  0
 14 16  1  0  0  0  0
 14 17  1  0  0  0  0
M  END
>  <CHROM.0>
-60.58904659,-179.24360371,-65.97839770,-43.46533024,-58.73344994,-62.59662665
-66.21705635,-58.71446374,-168.44334965

>  <CHROM.1>
-179.65526730,-96.55877674,-80.73109162,-28.66474857,16.09879606,-16.02484675
0.64683684,0.16184697,-2.62832124

>  <Name>
P129694981

>  <RI>
0

>  <Rbt.Current_Directory>
/home/fstefaniak/projects/zuza/docking/adenine/4TZX

>  <Rbt.Executable>
rbdock ($Id: //depot/dev/client3/rdock/2013.1/src/exe/rbdock.cxx#4 $)

>  <Rbt.Library>
libRbt.so (2013.1, Build901 2013/11/27)

>  <Rbt.Parameter_File>
/home/fstefaniak/progs/rDock//data/scripts/dock_solv.prm

>  <Rbt.Receptor>
4tzx.prm

>  <SCORE>
-49.0387

>  <SCORE.INTER>
-29.7878

>  <SCORE.INTER.CONST>
1

>  <SCORE.INTER.POLAR>
-3.59401

>  <SCORE.INTER.ROT>
2

>  <SCORE.INTER.SOLV>
14.0425

>  <SCORE.INTER.VDW>
-17.4926

>  <SCORE.INTER.norm>
-2.1277

>  <SCORE.INTRA>
1.80995

>  <SCORE.INTRA.DIHEDRAL>
1.60152

>  <SCORE.INTRA.DIHEDRAL.0>
0.577854

>  <SCORE.INTRA.POLAR>
0

>  <SCORE.INTRA.POLAR.0>
0

>  <SCORE.INTRA.REPUL>
0

>  <SCORE.INTRA.REPUL.0>
0

>  <SCORE.INTRA.SOLV>
0.0589797

>  <SCORE.INTRA.SOLV.lig_0>
-15.9758

>  <SCORE.INTRA.VDW>
0.979695

>  <SCORE.INTRA.VDW.0>
-0.09275

>  <SCORE.INTRA.norm>
0.129282

>  <SCORE.RESTR>
0

>  <SCORE.RESTR.CAVITY>
0

>  <SCORE.RESTR.norm>
0

>  <SCORE.SYSTEM>
-21.0609

>  <SCORE.SYSTEM.CONST>
0

>  <SCORE.SYSTEM.DIHEDRAL>
4.32921

>  <SCORE.SYSTEM.POLAR>
-3.04443

>  <SCORE.SYSTEM.SOLV>
0.15901

>  <SCORE.SYSTEM.VDW>
-5.38855

>  <SCORE.SYSTEM.norm>
-1.50435

>  <SCORE.heavy>
14

>  <SCORE.norm>
-3.50276

$$$$
P129694981
 OpenBabel12072022113D
libRbt.so/2013.1/901 2013/11/27
 17 18  0  0  0  0  0  0  0  0999 V2000
  -27.2232   13.6304  -17.4112 C   0  0  0  0  0  0  0  0  0  0  0  0
  -28.3675   14.3804  -16.7476 C   0  0  0  0  0  0  0  0  0  0  0  0
  -27.7370   15.5504  -16.1523 N   0  0  0  0  0  0  0  0  0  0  0  0
  -26.2946   15.3735  -16.0790 C   0  0  0  0  0  0  0  0  0  0  0  0
  -26.0462   13.9208  -16.4882 C   0  0  2  0  0  0  0  0  0  0  0  0
  -24.8220   13.7350  -17.1765 O   0  0  0  0  0  0  0  0  0  0  0  0
  -28.3390   16.6356  -15.5493 C   0  0  0  0  0  0  0  0  0  0  0  0
  -27.6494   17.4743  -14.9593 O   0  0  0  0  0  0  0  0  0  0  0  0
  -29.8811   16.7853  -15.6089 C   0  0  2  0  0  0  0  0  0  0  0  0
  -30.3922   17.3917  -16.9063 C   0  0  0  0  0  0  0  0  0  0  0  0
  -31.6859   18.0762  -16.5060 C   0  0  0  0  0  0  0  0  0  0  0  0
  -31.6286   18.3293  -15.0972 O   0  0  0  0  0  0  0  0  0  0  0  0
  -30.3564   17.8598  -14.6160 C   0  0  0  0  0  0  0  0  0  0  0  0
  -30.5508   15.4846  -15.3256 N   0  0  0  0  0  0  0  0  0  0  0  0
  -24.1011   13.8840  -16.5401 H   0  0  0  0  0  0  0  0  0  0  0  0
  -29.8350   14.8228  -15.0153 H   0  0  0  0  0  0  0  0  0  0  0  0
  -30.8833   15.1036  -16.2141 H   0  0  0  0  0  0  0  0  0  0  0  0
  1  2  1  0  0  0  0
  1  5  1  0  0  0  0
  2  3  1  0  0  0  0
  3  4  1  0  0  0  0
  3  7  1  0  0  0  0
  4  5  1  0  0  0  0
  5  6  1  6  0  0  0
  6 15  1  0  0  0  0
  7  8  2  0  0  0  0
  9 10  1  0  0  0  0
  9 13  1  0  0  0  0
  9 14  1  0  0  0  0
  9  7  1  6  0  0  0
 10 11  1  0  0  0  0
 11 12  1  0  0  0  0
 12 13  1  0  0  0  0
 14 16  1  0  0  0  0
 14 17  1  0  0  0  0
M  END
>  <CHROM.0>
-58.79572973,-177.58297739,-65.39789472,-44.43920942,59.02102397,-62.57025166
-67.20976975,-175.19578562,-168.61600706

>  <CHROM.1>
-177.04532953,8.55814828,-81.85949416,-28.62099524,16.03427485,-16.04102349
0.63849801,0.17501648,-2.58228799

>  <Name>
P129694981

>  <RI>
0

>  <Rbt.Current_Directory>
/home/fstefaniak/projects/zuza/docking/adenine/4TZX

>  <Rbt.Executable>
rbdock ($Id: //depot/dev/client3/rdock/2013.1/src/exe/rbdock.cxx#4 $)

>  <Rbt.Library>
libRbt.so (2013.1, Build901 2013/11/27)

>  <Rbt.Parameter_File>
/home/fstefaniak/progs/rDock//data/scripts/dock_solv.prm

>  <Rbt.Receptor>
4tzx.prm

>  <SCORE>
-48.6699

>  <SCORE.INTER>
-31.8591

>  <SCORE.INTER.CONST>
1

>  <SCORE.INTER.POLAR>
-3.72211

>  <SCORE.INTER.ROT>
2

>  <SCORE.INTER.SOLV>
14.1289

>  <SCORE.INTER.VDW>
-18.4753

>  <SCORE.INTER.norm>
-2.27565

>  <SCORE.INTRA>
3.32903

>  <SCORE.INTRA.DIHEDRAL>
2.49913

>  <SCORE.INTRA.DIHEDRAL.0>
0.577854

>  <SCORE.INTRA.POLAR>
0

>  <SCORE.INTRA.POLAR.0>
0

>  <SCORE.INTRA.REPUL>
0

>  <SCORE.INTRA.REPUL.0>
0

>  <SCORE.INTRA.SOLV>
0.14906

>  <SCORE.INTRA.SOLV.lig_0>
-15.9758

>  <SCORE.INTRA.VDW>
2.00493

>  <SCORE.INTRA.VDW.0>
-0.09275

>  <SCORE.INTRA.norm>
0.237788

>  <SCORE.RESTR>
0

>  <SCORE.RESTR.CAVITY>
0

>  <SCORE.RESTR.norm>
0

>  <SCORE.SYSTEM>
-20.1398

>  <SCORE.SYSTEM.CONST>
0

>  <SCORE.SYSTEM.DIHEDRAL>
4.33252

>  <SCORE.SYSTEM.POLAR>
-3.02064

>  <SCORE.SYSTEM.SOLV>
-0.195253

>  <SCORE.SYSTEM.VDW>
-4.73684

>  <SCORE.SYSTEM.norm>
-1.43856

>  <SCORE.heavy>
14

>  <SCORE.norm>
-3.47642

$$$$
P129694981
 OpenBabel12072022113D
libRbt.so/2013.1/901 2013/11/27
 17 18  0  0  0  0  0  0  0  0999 V2000
  -27.2401   13.5875  -17.2923 C   0  0  0  0  0  0  0  0  0  0  0  0
  -28.3704   14.3839  -16.6595 C   0  0  0  0  0  0  0  0  0  0  0  0
  -27.7261   15.5877  -16.1529 N   0  0  0  0  0  0  0  0  0  0  0  0
  -26.2831   15.4100  -16.0929 C   0  0  0  0  0  0  0  0  0  0  0  0
  -26.0463   13.9326  -16.4106 C   0  0  2  0  0  0  0  0  0  0  0  0
  -24.8349   13.6972  -17.1062 O   0  0  0  0  0  0  0  0  0  0  0  0
  -28.3141   16.7125  -15.6118 C   0  0  0  0  0  0  0  0  0  0  0  0
  -27.6118   17.5850  -15.0898 O   0  0  0  0  0  0  0  0  0  0  0  0
  -29.8565   16.8644  -15.6546 C   0  0  2  0  0  0  0  0  0  0  0  0
  -30.3878   17.3936  -16.9774 C   0  0  0  0  0  0  0  0  0  0  0  0
  -31.6725   18.1060  -16.5976 C   0  0  0  0  0  0  0  0  0  0  0  0
  -31.5907   18.4433  -15.2077 O   0  0  0  0  0  0  0  0  0  0  0  0
  -30.3119   17.9986  -14.7205 C   0  0  0  0  0  0  0  0  0  0  0  0
  -30.5252   15.5858  -15.2822 N   0  0  0  0  0  0  0  0  0  0  0  0
  -24.1024   13.9080  -16.5012 H   0  0  0  0  0  0  0  0  0  0  0  0
  -30.8066   15.1144  -16.1455 H   0  0  0  0  0  0  0  0  0  0  0  0
  -31.4063   15.8167  -14.8181 H   0  0  0  0  0  0  0  0  0  0  0  0
  1  2  1  0  0  0  0
  1  5  1  0  0  0  0
  2  3  1  0  0  0  0
  3  4  1  0  0  0  0
  3  7  1  0  0  0  0
  4  5  1  0  0  0  0
  5  6  1  6  0  0  0
  6 15  1  0  0  0  0
  7  8  2  0  0  0  0
  9 10  1  0  0  0  0
  9 13  1  0  0  0  0
  9 14  1  0  0  0  0
  9  7  1  6  0  0  0
 10 11  1  0  0  0  0
 11 12  1  0  0  0  0
 12 13  1  0  0  0  0
 14 16  1  0  0  0  0
 14 17  1  0  0  0  0
M  END
>  <CHROM.0>
-62.40167889,-63.47859717,-63.61717591,-43.62309443,57.58864082,-60.88827395
-69.30642979,-62.42050207,-168.11159242

>  <CHROM.1>
-178.58075457,-99.21408465,-82.15173109,-28.61420669,16.08593231,-16.05676154
0.64913494,0.15672758,-2.65186501

>  <Name>
P129694981

>  <RI>
0

>  <Rbt.Current_Directory>
/home/fstefaniak/projects/zuza/docking/adenine/4TZX

>  <Rbt.Executable>
rbdock ($Id: //depot/dev/client3/rdock/2013.1/src/exe/rbdock.cxx#4 $)

>  <Rbt.Library>
libRbt.so (2013.1, Build901 2013/11/27)

>  <Rbt.Parameter_File>
/home/fstefaniak/progs/rDock//data/scripts/dock_solv.prm

>  <Rbt.Receptor>
4tzx.prm

>  <SCORE>
-47.9876

>  <SCORE.INTER>
-29.6746

>  <SCORE.INTER.CONST>
1

>  <SCORE.INTER.POLAR>
-3.56219

>  <SCORE.INTER.ROT>
2

>  <SCORE.INTER.SOLV>
13.9016

>  <SCORE.INTER.VDW>
-17.4763

>  <SCORE.INTER.norm>
-2.11961

>  <SCORE.INTRA>
2.00327

>  <SCORE.INTRA.DIHEDRAL>
1.85975

>  <SCORE.INTRA.DIHEDRAL.0>
0.577854

>  <SCORE.INTRA.POLAR>
0

>  <SCORE.INTRA.POLAR.0>
0

>  <SCORE.INTRA.REPUL>
0

>  <SCORE.INTRA.REPUL.0>
0

>  <SCORE.INTRA.SOLV>
0.0658694

>  <SCORE.INTRA.SOLV.lig_0>
-15.9758

>  <SCORE.INTRA.VDW>
1.04046

>  <SCORE.INTRA.VDW.0>
-0.09275

>  <SCORE.INTRA.norm>
0.14309

>  <SCORE.RESTR>
0

>  <SCORE.RESTR.CAVITY>
0

>  <SCORE.RESTR.norm>
0

>  <SCORE.SYSTEM>
-20.3163

>  <SCORE.SYSTEM.CONST>
0

>  <SCORE.SYSTEM.DIHEDRAL>
4.54173

>  <SCORE.SYSTEM.POLAR>
-3.03062

>  <SCORE.SYSTEM.SOLV>
-0.0471802

>  <SCORE.SYSTEM.VDW>
-4.94033

>  <SCORE.SYSTEM.norm>
-1.45117

>  <SCORE.heavy>
14

>  <SCORE.norm>
-3.42769

$$$$
P129738730
 OpenBabel12072022113D
libRbt.so/2013.1/901 2013/11/27
 20 20  0  0  0  0  0  0  0  0999 V2000
  -23.4015   12.0482  -16.1717 C   0  0  0  0  0  0  0  0  0  0  0  0
  -23.4273   12.1095  -14.6485 C   0  0  0  0  0  0  0  0  0  0  0  0
  -24.5593   12.9980  -14.1364 C   0  0  0  0  0  0  0  0  0  0  0  0
  -25.9206   12.5933  -14.7083 C   0  0  1  0  0  0  0  0  0  0  0  0
  -25.9225   12.4834  -16.2461 C   0  0  2  0  0  0  0  0  0  0  0  0
  -24.7501   11.6110  -16.7369 C   0  0  0  0  0  0  0  0  0  0  0  0
  -25.9302   13.8737  -16.8972 C   0  0  0  0  0  0  0  0  0  0  0  0
  -27.2044   14.5950  -16.7221 N   0  0  0  0  0  0  0  0  0  0  0  0
  -27.3698   15.7610  -16.0698 C   0  0  0  0  0  0  0  0  0  0  0  0
  -26.3143   16.4646  -15.5476 N   0  3  0  0  0  0  0  0  0  0  0  0
  -25.3437   16.2561  -15.7737 H   0  0  0  0  0  0  0  0  0  0  0  0
  -26.5654   17.6192  -14.7879 N   0  0  0  0  0  0  0  0  0  0  0  0
  -28.6093   16.2632  -15.9375 N   0  0  0  0  0  0  0  0  0  0  0  0
  -26.3025   11.3189  -14.1941 O   0  0  0  0  0  0  0  0  0  0  0  0
  -28.0283   14.1973  -17.1548 H   0  0  0  0  0  0  0  0  0  0  0  0
  -25.7190   17.8687  -14.2606 H   0  0  0  0  0  0  0  0  0  0  0  0
  -26.7507   18.4098  -15.4184 H   0  0  0  0  0  0  0  0  0  0  0  0
  -29.4381   15.8024  -16.2820 H   0  0  0  0  0  0  0  0  0  0  0  0
  -28.6912   17.1977  -15.5537 H   0  0  0  0  0  0  0  0  0  0  0  0
  -26.5197   11.4214  -13.2492 H   0  0  0  0  0  0  0  0  0  0  0  0
  1  2  1  0  0  0  0
  1  6  1  0  0  0  0
  2  3  1  0  0  0  0
  3  4  1  0  0  0  0
  4 14  1  1  0  0  0
  4  5  1  0  0  0  0
  5  6  1  0  0  0  0
  5  7  1  6  0  0  0
  7  8  1  0  0  0  0
  8  9  1  0  0  0  0
  8 15  1  0  0  0  0
  9 10  2  0  0  0  0
  9 13  1  0  0  0  0
 10 11  1  0  0  0  0
 10 12  1  0  0  0  0
 12 16  1  0  0  0  0
 12 17  1  0  0  0  0
 13 18  1  0  0  0  0
 13 19  1  0  0  0  0
 14 20  1  0  0  0  0
M  CHG  1  10   1
M  END
>  <CHROM.0>
-59.97924755,-59.67664682,-65.14196039,-42.15037188,-51.61112578,-171.92825662
-67.22418381,-173.12603949,-168.79942126

>  <CHROM.1>
70.44657862,-69.89223468,117.78172420,164.15753987,-25.90543327,13.86902055
-15.57358876,-0.93330899,-0.54216218,0.28003407

>  <Name>
P129738730

>  <RI>
0

>  <Rbt.Current_Directory>
/home/fstefaniak/projects/zuza/docking/adenine/4TZX

>  <Rbt.Executable>
rbdock ($Id: //depot/dev/client3/rdock/2013.1/src/exe/rbdock.cxx#4 $)

>  <Rbt.Library>
libRbt.so (2013.1, Build901 2013/11/27)

>  <Rbt.Parameter_File>
/home/fstefaniak/progs/rDock//data/scripts/dock_solv.prm

>  <Rbt.Receptor>
4tzx.prm

>  <SCORE>
-45.3727

>  <SCORE.INTER>
-24.7427

>  <SCORE.INTER.CONST>
1

>  <SCORE.INTER.POLAR>
-3.9162

>  <SCORE.INTER.ROT>
3

>  <SCORE.INTER.SOLV>
12.9143

>  <SCORE.INTER.VDW>
-13.3459

>  <SCORE.INTER.norm>
-1.90329

>  <SCORE.INTRA>
-0.352766

>  <SCORE.INTRA.DIHEDRAL>
0.343816

>  <SCORE.INTRA.DIHEDRAL.0>
3.63911

>  <SCORE.INTRA.POLAR>
-0.00189094

>  <SCORE.INTRA.POLAR.0>
-0.0360726

>  <SCORE.INTRA.REPUL>
0

>  <SCORE.INTRA.REPUL.0>
0

>  <SCORE.INTRA.SOLV>
-0.247074

>  <SCORE.INTRA.SOLV.lig_0>
-32.1416

>  <SCORE.INTRA.VDW>
-0.394708

>  <SCORE.INTRA.VDW.0>
-1.04402

>  <SCORE.INTRA.norm>
-0.0271358

>  <SCORE.RESTR>
0.482451

>  <SCORE.RESTR.CAVITY>
0.482451

>  <SCORE.RESTR.norm>
0.0371116

>  <SCORE.SYSTEM>
-20.7597

>  <SCORE.SYSTEM.CONST>
0

>  <SCORE.SYSTEM.DIHEDRAL>
5.27196

>  <SCORE.SYSTEM.POLAR>
-3.08423

>  <SCORE.SYSTEM.SOLV>
-0.0536533

>  <SCORE.SYSTEM.VDW>
-5.29846

>  <SCORE.SYSTEM.norm>
-1.5969

>  <SCORE.heavy>
13

>  <SCORE.norm>
-3.49021

$$$$
P129738730
 OpenBabel12072022113D
libRbt.so/2013.1/901 2013/11/27
 20 20  0  0  0  0  0  0  0  0999 V2000
  -25.5075   14.1398  -15.9779 C   0  0  0  0  0  0  0  0  0  0  0  0
  -25.7787   12.7397  -15.4384 C   0  0  0  0  0  0  0  0  0  0  0  0
  -27.2652   12.5146  -15.1688 C   0  0  0  0  0  0  0  0  0  0  0  0
  -28.1320   12.8261  -16.3917 C   0  0  1  0  0  0  0  0  0  0  0  0
  -27.8574   14.2208  -16.9887 C   0  0  2  0  0  0  0  0  0  0  0  0
  -26.3479   14.4341  -17.2174 C   0  0  0  0  0  0  0  0  0  0  0  0
  -28.4793   15.3234  -16.1201 C   0  0  0  0  0  0  0  0  0  0  0  0
  -28.9300   16.4944  -16.8948 N   0  0  0  0  0  0  0  0  0  0  0  0
  -29.7838   17.4439  -16.4681 C   0  0  0  0  0  0  0  0  0  0  0  0
  -30.2809   17.4614  -15.1896 N   0  3  0  0  0  0  0  0  0  0  0  0
  -29.9040   16.8833  -14.4410 H   0  0  0  0  0  0  0  0  0  0  0  0
  -31.2484   18.4180  -14.8405 N   0  0  0  0  0  0  0  0  0  0  0  0
  -30.1516   18.4184  -17.3173 N   0  0  0  0  0  0  0  0  0  0  0  0
  -27.8800   11.8704  -17.4201 O   0  0  0  0  0  0  0  0  0  0  0  0
  -28.5429   16.6170  -17.8218 H   0  0  0  0  0  0  0  0  0  0  0  0
  -32.0784   17.9400  -14.4673 H   0  0  0  0  0  0  0  0  0  0  0  0
  -30.8898   19.0035  -14.0753 H   0  0  0  0  0  0  0  0  0  0  0  0
  -29.8407   18.4704  -18.2757 H   0  0  0  0  0  0  0  0  0  0  0  0
  -30.6936   19.1848  -16.9351 H   0  0  0  0  0  0  0  0  0  0  0  0
  -28.1663   10.9943  -17.1021 H   0  0  0  0  0  0  0  0  0  0  0  0
  1  2  1  0  0  0  0
  1  6  1  0  0  0  0
  2  3  1  0  0  0  0
  3  4  1  0  0  0  0
  4 14  1  6  0  0  0
  4  5  1  0  0  0  0
  5  6  1  0  0  0  0
  5  7  1  1  0  0  0
  7  8  1  0  0  0  0
  8  9  1  0  0  0  0
  8 15  1  0  0  0  0
  9 10  2  0  0  0  0
  9 13  1  0  0  0  0
 10 11  1  0  0  0  0
 10 12  1  0  0  0  0
 12 16  1  0  0  0  0
 12 17  1  0  0  0  0
 13 18  1  0  0  0  0
 13 19  1  0  0  0  0
 14 20  1  0  0  0  0
M  CHG  1  10   1
M  END
>  <CHROM.0>
-57.41039356,-63.60761905,-65.33991383,-42.51647674,-174.38907438,-56.85312182
-69.32025829,-174.25155079,-167.68574399

>  <CHROM.1>
64.51506040,-147.80281142,162.78706614,124.27248807,-28.32749280,15.12907545
-16.26566684,-0.67791173,0.74282795,-0.63098135

>  <Name>
P129738730

>  <RI>
0

>  <Rbt.Current_Directory>
/home/fstefaniak/projects/zuza/docking/adenine/4TZX

>  <Rbt.Executable>
rbdock ($Id: //depot/dev/client3/rdock/2013.1/src/exe/rbdock.cxx#4 $)

>  <Rbt.Library>
libRbt.so (2013.1, Build901 2013/11/27)

>  <Rbt.Parameter_File>
/home/fstefaniak/progs/rDock//data/scripts/dock_solv.prm

>  <Rbt.Receptor>
4tzx.prm

>  <SCORE>
-43.8929

>  <SCORE.INTER>
-23.9265

>  <SCORE.INTER.CONST>
1

>  <SCORE.INTER.POLAR>
-2.80964

>  <SCORE.INTER.ROT>
3

>  <SCORE.INTER.SOLV>
17.3939

>  <SCORE.INTER.VDW>
-17.9835

>  <SCORE.INTER.norm>
-1.8405

>  <SCORE.INTRA>
1.13637

>  <SCORE.INTRA.DIHEDRAL>
2.77934

>  <SCORE.INTRA.DIHEDRAL.0>
3.63911

>  <SCORE.INTRA.POLAR>
-0.00716804

>  <SCORE.INTRA.POLAR.0>
-0.0360726

>  <SCORE.INTRA.REPUL>
0

>  <SCORE.INTRA.REPUL.0>
0

>  <SCORE.INTRA.SOLV>
-0.721496

>  <SCORE.INTRA.SOLV.lig_0>
-32.1416

>  <SCORE.INTRA.VDW>
0.131816

>  <SCORE.INTRA.VDW.0>
-1.04402

>  <SCORE.INTRA.norm>
0.0874128

>  <SCORE.RESTR>
0.0296276

>  <SCORE.RESTR.CAVITY>
0.0296276

>  <SCORE.RESTR.norm>
0.00227904

>  <SCORE.SYSTEM>
-21.1323

>  <SCORE.SYSTEM.CONST>
0

>  <SCORE.SYSTEM.DIHEDRAL>
5.10131

>  <SCORE.SYSTEM.POLAR>
-3.08416

>  <SCORE.SYSTEM.SOLV>
-0.127078

>  <SCORE.SYSTEM.VDW>
-5.46575

>  <SCORE.SYSTEM.norm>
-1.62556

>  <SCORE.heavy>
13

>  <SCORE.norm>
-3.37637

$$$$
P129738730
 OpenBabel12072022113D
libRbt.so/2013.1/901 2013/11/27
 20 20  0  0  0  0  0  0  0  0999 V2000
  -27.5343   14.8782  -15.9746 C   0  0  0  0  0  0  0  0  0  0  0  0
  -28.8990   14.2384  -16.2049 C   0  0  0  0  0  0  0  0  0  0  0  0
  -30.0356   15.1429  -15.7327 C   0  0  0  0  0  0  0  0  0  0  0  0
  -29.9579   16.5435  -16.3462 C   0  0  1  0  0  0  0  0  0  0  0  0
  -28.5781   17.2073  -16.1663 C   0  0  2  0  0  0  0  0  0  0  0  0
  -27.4486   16.2599  -16.6172 C   0  0  0  0  0  0  0  0  0  0  0  0
  -28.3880   17.6999  -14.7247 C   0  0  0  0  0  0  0  0  0  0  0  0
  -27.2016   18.5582  -14.5510 N   0  0  0  0  0  0  0  0  0  0  0  0
  -26.7002   18.9862  -13.3772 C   0  0  0  0  0  0  0  0  0  0  0  0
  -27.2168   18.5871  -12.1706 N   0  3  0  0  0  0  0  0  0  0  0  0
  -27.8748   17.8158  -12.0779 H   0  0  0  0  0  0  0  0  0  0  0  0
  -26.7154   19.1525  -10.9865 N   0  0  0  0  0  0  0  0  0  0  0  0
  -25.6472   19.8211  -13.3843 N   0  0  0  0  0  0  0  0  0  0  0  0
  -30.2122   16.4730  -17.7479 O   0  0  0  0  0  0  0  0  0  0  0  0
  -26.6966   18.8296  -15.3851 H   0  0  0  0  0  0  0  0  0  0  0  0
  -25.6922   19.0547  -10.9710 H   0  0  0  0  0  0  0  0  0  0  0  0
  -26.9042   20.1631  -10.9835 H   0  0  0  0  0  0  0  0  0  0  0  0
  -25.2173   20.1703  -14.2277 H   0  0  0  0  0  0  0  0  0  0  0  0
  -25.2144   20.0276  -12.4914 H   0  0  0  0  0  0  0  0  0  0  0  0
  -29.4830   15.9809  -18.1681 H   0  0  0  0  0  0  0  0  0  0  0  0
  1  2  1  0  0  0  0
  1  6  1  0  0  0  0
  2  3  1  0  0  0  0
  3  4  1  0  0  0  0
  4 14  1  6  0  0  0
  4  5  1  0  0  0  0
  5  6  1  0  0  0  0
  5  7  1  1  0  0  0
  7  8  1  0  0  0  0
  8  9  1  0  0  0  0
  8 15  1  0  0  0  0
  9 10  2  0  0  0  0
  9 13  1  0  0  0  0
 10 11  1  0  0  0  0
 10 12  1  0  0  0  0
 12 16  1  0  0  0  0
 12 17  1  0  0  0  0
 13 18  1  0  0  0  0
 13 19  1  0  0  0  0
 14 20  1  0  0  0  0
M  CHG  1  10   1
M  END
>  <CHROM.0>
-58.93350395,-56.88964547,-68.03757165,-42.73098971,-65.87680438,-61.16356973
-62.27283627,-54.51687600,-168.33674092

>  <CHROM.1>
-66.34855782,-169.36748717,-170.99449577,-52.99220310,-28.01627161,17.23462299
-14.90019621,3.01088916,-1.10229880,-0.85654188

>  <Name>
P129738730

>  <RI>
0

>  <Rbt.Current_Directory>
/home/fstefaniak/projects/zuza/docking/adenine/4TZX

>  <Rbt.Executable>
rbdock ($Id: //depot/dev/client3/rdock/2013.1/src/exe/rbdock.cxx#4 $)

>  <Rbt.Library>
libRbt.so (2013.1, Build901 2013/11/27)

>  <Rbt.Parameter_File>
/home/fstefaniak/progs/rDock//data/scripts/dock_solv.prm

>  <Rbt.Receptor>
4tzx.prm

>  <SCORE>
-42.3576

>  <SCORE.INTER>
-22.7998

>  <SCORE.INTER.CONST>
1

>  <SCORE.INTER.POLAR>
-6.65341

>  <SCORE.INTER.ROT>
3

>  <SCORE.INTER.SOLV>
24.8088

>  <SCORE.INTER.VDW>
-6.89142

>  <SCORE.INTER.norm>
-1.75383

>  <SCORE.INTRA>
1.2377

>  <SCORE.INTRA.DIHEDRAL>
0.212661

>  <SCORE.INTRA.DIHEDRAL.0>
3.63911

>  <SCORE.INTRA.POLAR>
0.0360726

>  <SCORE.INTRA.POLAR.0>
-0.0360726

>  <SCORE.INTRA.REPUL>
0

>  <SCORE.INTRA.REPUL.0>
0

>  <SCORE.INTRA.SOLV>
-0.229687

>  <SCORE.INTRA.SOLV.lig_0>
-32.1416

>  <SCORE.INTRA.VDW>
1.12357

>  <SCORE.INTRA.VDW.0>
-1.04402

>  <SCORE.INTRA.norm>
0.0952078

>  <SCORE.RESTR>
0

>  <SCORE.RESTR.CAVITY>
0

>  <SCORE.RESTR.norm>
0

>  <SCORE.SYSTEM>
-20.7955

>  <SCORE.SYSTEM.CONST>
0

>  <SCORE.SYSTEM.DIHEDRAL>
4.72058

>  <SCORE.SYSTEM.POLAR>
-3.0666

>  <SCORE.SYSTEM.SOLV>
0.195744

>  <SCORE.SYSTEM.VDW>
-5.28045

>  <SCORE.SYSTEM.norm>
-1.59965

>  <SCORE.heavy>
13

>  <SCORE.norm>
-3.25828

$$$$
P129922533
 OpenBabel12072022113D
libRbt.so/2013.1/901 2013/11/27
 18 18  0  0  0  0  0  0  0  0999 V2000
  -28.4474   13.1516  -16.4216 C   0  0  0  0  0  0  0  0  0  0  0  0
  -28.8518   14.6239  -16.4295 C   0  0  0  0  0  0  0  0  0  0  0  0
  -27.7258   15.4677  -16.0320 N   0  0  0  0  0  0  0  0  0  0  0  0
  -26.5313   15.3155  -16.8586 C   0  0  0  0  0  0  0  0  0  0  0  0
  -26.0661   13.8609  -16.8663 C   0  0  0  0  0  0  0  0  0  0  0  0
  -27.1891   12.9015  -17.2439 C   0  0  2  0  0  0  0  0  0  0  0  0
  -27.5029   13.0373  -18.6999 N   0  3  0  0  0  0  0  0  0  0  0  0
  -26.9483   12.3934  -19.2825 H   0  0  0  0  0  0  0  0  0  0  0  0
  -28.4949   12.8441  -18.8899 H   0  0  0  0  0  0  0  0  0  0  0  0
  -27.3111   13.9904  -19.0355 H   0  0  0  0  0  0  0  0  0  0  0  0
  -28.1305   16.8877  -15.8749 C   0  0  0  0  0  0  0  0  0  0  0  0
  -29.1930   17.0829  -14.7786 C   0  0  0  0  0  0  0  0  0  0  0  0
  -30.4232   16.7433  -15.0396 N   0  0  0  0  0  0  0  0  0  0  0  0
  -31.2511   16.9880  -13.9312 O   0  0  0  0  0  0  0  0  0  0  0  0
  -28.8053   17.6365  -13.5790 N   0  0  0  0  0  0  0  0  0  0  0  0
  -31.8528   17.6808  -14.2670 H   0  0  0  0  0  0  0  0  0  0  0  0
  -28.8562   17.0189  -12.7753 H   0  0  0  0  0  0  0  0  0  0  0  0
  -29.3072   18.5091  -13.4193 H   0  0  0  0  0  0  0  0  0  0  0  0
  1  2  1  0  0  0  0
  1  6  1  0  0  0  0
  2  3  1  0  0  0  0
  3  4  1  0  0  0  0
  3 11  1  0  0  0  0
  4  5  1  0  0  0  0
  5  6  1  0  0  0  0
  6  7  1  6  0  0  0
  7  8  1  0  0  0  0
  7  9  1  0  0  0  0
  7 10  1  0  0  0  0
 11 12  1  0  0  0  0
 12 13  2  0  0  0  0
 12 15  1  0  0  0  0
 13 14  1  0  0  0  0
 14 16  1  0  0  0  0
 15 17  1  0  0  0  0
 15 18  1  0  0  0  0
M  CHG  1   7   1
M  END
>  <CHROM.0>
-65.25592569,-176.35569639,-65.12199173,-43.50210922,-59.34828657,-64.13042013
-66.88863307,-48.70943545,-166.96423538

>  <CHROM.1>
61.61515324,-146.24800990,-75.99727646,-113.46028680,115.23493622,-28.38872669
15.32376634,-15.97338043,1.04257931,-0.20895940,-2.54207049

>  <Name>
P129922533

>  <RI>
0

>  <Rbt.Current_Directory>
/home/fstefaniak/projects/zuza/docking/adenine/4TZX

>  <Rbt.Executable>
rbdock ($Id: //depot/dev/client3/rdock/2013.1/src/exe/rbdock.cxx#4 $)

>  <Rbt.Library>
libRbt.so (2013.1, Build901 2013/11/27)

>  <Rbt.Parameter_File>
/home/fstefaniak/progs/rDock//data/scripts/dock_solv.prm

>  <Rbt.Receptor>
4tzx.prm

>  <SCORE>
-56.7153

>  <SCORE.INTER>
-37.1861

>  <SCORE.INTER.CONST>
1

>  <SCORE.INTER.POLAR>
-6.36419

>  <SCORE.INTER.ROT>
3

>  <SCORE.INTER.SOLV>
20.9124

>  <SCORE.INTER.VDW>
-16.1476

>  <SCORE.INTER.norm>
-3.09885

>  <SCORE.INTRA>
1.1695

>  <SCORE.INTRA.DIHEDRAL>
0.659348

>  <SCORE.INTRA.DIHEDRAL.0>
3.8185

>  <SCORE.INTRA.POLAR>
0.118298

>  <SCORE.INTRA.POLAR.0>
-0.118298

>  <SCORE.INTRA.REPUL>
0

>  <SCORE.INTRA.REPUL.0>
0

>  <SCORE.INTRA.SOLV>
-0.327863

>  <SCORE.INTRA.SOLV.lig_0>
-31.8262

>  <SCORE.INTRA.VDW>
0.601545

>  <SCORE.INTRA.VDW.0>
-0.589735

>  <SCORE.INTRA.norm>
0.0974583

>  <SCORE.RESTR>
0

>  <SCORE.RESTR.CAVITY>
0

>  <SCORE.RESTR.norm>
0

>  <SCORE.SYSTEM>
-20.6986

>  <SCORE.SYSTEM.CONST>
0

>  <SCORE.SYSTEM.DIHEDRAL>
5.25424

>  <SCORE.SYSTEM.POLAR>
-3.05339

>  <SCORE.SYSTEM.SOLV>
0.149281

>  <SCORE.SYSTEM.VDW>
-5.42227

>  <SCORE.SYSTEM.norm>
-1.72488

>  <SCORE.heavy>
12

>  <SCORE.norm>
-4.72627

$$$$
P129922533
 OpenBabel12072022113D
libRbt.so/2013.1/901 2013/11/27
 18 18  0  0  0  0  0  0  0  0999 V2000
  -28.5365   13.3720  -16.2317 C   0  0  0  0  0  0  0  0  0  0  0  0
  -28.9723   14.8338  -16.2996 C   0  0  0  0  0  0  0  0  0  0  0  0
  -27.8867   15.7137  -15.8695 N   0  0  0  0  0  0  0  0  0  0  0  0
  -26.6489   15.5681  -16.6309 C   0  0  0  0  0  0  0  0  0  0  0  0
  -26.1520   14.1251  -16.5760 C   0  0  0  0  0  0  0  0  0  0  0  0
  -27.2330   13.1302  -16.9830 C   0  0  2  0  0  0  0  0  0  0  0  0
  -27.4757   13.2208  -18.4560 N   0  3  0  0  0  0  0  0  0  0  0  0
  -28.4514   13.0049  -18.7069 H   0  0  0  0  0  0  0  0  0  0  0  0
  -27.2693   14.1627  -18.8134 H   0  0  0  0  0  0  0  0  0  0  0  0
  -26.8776   12.5635  -18.9738 H   0  0  0  0  0  0  0  0  0  0  0  0
  -28.3301   17.1274  -15.7712 C   0  0  0  0  0  0  0  0  0  0  0  0
  -29.2134   17.3869  -14.5378 C   0  0  0  0  0  0  0  0  0  0  0  0
  -30.5002   17.2191  -14.6501 N   0  0  0  0  0  0  0  0  0  0  0  0
  -31.1448   17.4977  -13.4331 O   0  0  0  0  0  0  0  0  0  0  0  0
  -28.6105   17.8148  -13.3762 N   0  0  0  0  0  0  0  0  0  0  0  0
  -31.9405   16.9327  -13.4824 H   0  0  0  0  0  0  0  0  0  0  0  0
  -28.6472   17.1637  -12.5985 H   0  0  0  0  0  0  0  0  0  0  0  0
  -28.9651   18.7348  -13.1178 H   0  0  0  0  0  0  0  0  0  0  0  0
  1  2  1  0  0  0  0
  1  6  1  0  0  0  0
  2  3  1  0  0  0  0
  3  4  1  0  0  0  0
  3 11  1  0  0  0  0
  4  5  1  0  0  0  0
  5  6  1  0  0  0  0
  6  7  1  6  0  0  0
  7  8  1  0  0  0  0
  7  9  1  0  0  0  0
  7 10  1  0  0  0  0
 11 12  1  0  0  0  0
 12 13  2  0  0  0  0
 12 15  1  0  0  0  0
 13 14  1  0  0  0  0
 14 16  1  0  0  0  0
 15 17  1  0  0  0  0
 15 18  1  0  0  0  0
M  CHG  1   7   1
M  END
>  <CHROM.0>
-59.76819955,-178.67520730,-61.00518195,-42.10797069,-63.52058723,-63.86765632
-65.88088205,-63.19375931,-168.79412958

>  <CHROM.1>
74.32988592,-25.58644294,-88.82903390,-113.87034677,-152.08177346,-28.43091773
15.59355679,-15.72259201,1.06861300,-0.22365462,-2.54409465

>  <Name>
P129922533

>  <RI>
0

>  <Rbt.Current_Directory>
/home/fstefaniak/projects/zuza/docking/adenine/4TZX

>  <Rbt.Executable>
rbdock ($Id: //depot/dev/client3/rdock/2013.1/src/exe/rbdock.cxx#4 $)

>  <Rbt.Library>
libRbt.so (2013.1, Build901 2013/11/27)

>  <Rbt.Parameter_File>
/home/fstefaniak/progs/rDock//data/scripts/dock_solv.prm

>  <Rbt.Receptor>
4tzx.prm

>  <SCORE>
-51.7177

>  <SCORE.INTER>
-32.3587

>  <SCORE.INTER.CONST>
1

>  <SCORE.INTER.POLAR>
-5.43098

>  <SCORE.INTER.ROT>
3

>  <SCORE.INTER.SOLV>
20.8156

>  <SCORE.INTER.VDW>
-16.0077

>  <SCORE.INTER.norm>
-2.69656

>  <SCORE.INTRA>
1.55333

>  <SCORE.INTRA.DIHEDRAL>
2.40928

>  <SCORE.INTRA.DIHEDRAL.0>
3.8185

>  <SCORE.INTRA.POLAR>
0.118298

>  <SCORE.INTRA.POLAR.0>
-0.118298

>  <SCORE.INTRA.REPUL>
0

>  <SCORE.INTRA.REPUL.0>
0

>  <SCORE.INTRA.SOLV>
-0.392367

>  <SCORE.INTRA.SOLV.lig_0>
-31.8262

>  <SCORE.INTRA.VDW>
0.142663

>  <SCORE.INTRA.VDW.0>
-0.589735

>  <SCORE.INTRA.norm>
0.129444

>  <SCORE.RESTR>
0

>  <SCORE.RESTR.CAVITY>
0

>  <SCORE.RESTR.norm>
0

>  <SCORE.SYSTEM>
-20.9124

>  <SCORE.SYSTEM.CONST>
0

>  <SCORE.SYSTEM.DIHEDRAL>
4.44401

>  <SCORE.SYSTEM.POLAR>
-3.06714

>  <SCORE.SYSTEM.SOLV>
0.154328

>  <SCORE.SYSTEM.VDW>
-5.25057

>  <SCORE.SYSTEM.norm>
-1.7427

>  <SCORE.heavy>
12

>  <SCORE.norm>
-4.30981

$$$$
P129922533
 OpenBabel12072022113D
libRbt.so/2013.1/901 2013/11/27
 18 18  0  0  0  0  0  0  0  0999 V2000
  -28.0971   13.4197  -15.8582 C   0  0  0  0  0  0  0  0  0  0  0  0
  -28.8288   14.7366  -16.1064 C   0  0  0  0  0  0  0  0  0  0  0  0
  -27.9652   15.8721  -15.7859 N   0  0  0  0  0  0  0  0  0  0  0  0
  -26.7037   15.9024  -16.5213 C   0  0  0  0  0  0  0  0  0  0  0  0
  -25.9159   14.6150  -16.2881 C   0  0  0  0  0  0  0  0  0  0  0  0
  -26.7515   13.3718  -16.5716 C   0  0  2  0  0  0  0  0  0  0  0  0
  -26.9665   13.2314  -18.0449 N   0  3  0  0  0  0  0  0  0  0  0  0
  -27.9035   12.8678  -18.2718 H   0  0  0  0  0  0  0  0  0  0  0  0
  -26.8638   14.1339  -18.5271 H   0  0  0  0  0  0  0  0  0  0  0  0
  -26.2825   12.5865  -18.4621 H   0  0  0  0  0  0  0  0  0  0  0  0
  -28.6988   17.1607  -15.8633 C   0  0  0  0  0  0  0  0  0  0  0  0
  -29.3684   17.5422  -14.5310 C   0  0  0  0  0  0  0  0  0  0  0  0
  -30.6691   17.5934  -14.4829 N   0  0  0  0  0  0  0  0  0  0  0  0
  -31.1040   17.9542  -13.1965 O   0  0  0  0  0  0  0  0  0  0  0  0
  -28.5647   17.8432  -13.4542 N   0  0  0  0  0  0  0  0  0  0  0  0
  -30.7655   18.8665  -13.1082 H   0  0  0  0  0  0  0  0  0  0  0  0
  -28.6261   17.2023  -12.6697 H   0  0  0  0  0  0  0  0  0  0  0  0
  -28.7140   18.8097  -13.1672 H   0  0  0  0  0  0  0  0  0  0  0  0
  1  2  1  0  0  0  0
  1  6  1  0  0  0  0
  2  3  1  0  0  0  0
  3  4  1  0  0  0  0
  3 11  1  0  0  0  0
  4  5  1  0  0  0  0
  5  6  1  0  0  0  0
  6  7  1  6  0  0  0
  7  8  1  0  0  0  0
  7  9  1  0  0  0  0
  7 10  1  0  0  0  0
 11 12  1  0  0  0  0
 12 13  2  0  0  0  0
 12 15  1  0  0  0  0
 13 14  1  0  0  0  0
 14 16  1  0  0  0  0
 15 17  1  0  0  0  0
 15 18  1  0  0  0  0
M  CHG  1   7   1
M  END
>  <CHROM.0>
54.51186231,-94.57708181,-65.17881099,-43.18248111,-179.23071335,-58.71942054
-66.78989060,-177.37246519,-169.23734601

>  <CHROM.1>
88.84046036,-20.14544418,-114.94184840,-114.84359405,65.29021514,-28.32737773
15.78736364,-15.54289105,0.99069298,-0.25421428,-2.64430604

>  <Name>
P129922533

>  <RI>
0

>  <Rbt.Current_Directory>
/home/fstefaniak/projects/zuza/docking/adenine/4TZX

>  <Rbt.Executable>
rbdock ($Id: //depot/dev/client3/rdock/2013.1/src/exe/rbdock.cxx#4 $)

>  <Rbt.Library>
libRbt.so (2013.1, Build901 2013/11/27)

>  <Rbt.Parameter_File>
/home/fstefaniak/progs/rDock//data/scripts/dock_solv.prm

>  <Rbt.Receptor>
4tzx.prm

>  <SCORE>
-51.3647

>  <SCORE.INTER>
-37.4989

>  <SCORE.INTER.CONST>
1

>  <SCORE.INTER.POLAR>
-6.53491

>  <SCORE.INTER.ROT>
3

>  <SCORE.INTER.SOLV>
19.2891

>  <SCORE.INTER.VDW>
-15.2459

>  <SCORE.INTER.norm>
-3.12491

>  <SCORE.INTRA>
1.96149

>  <SCORE.INTRA.DIHEDRAL>
2.49021

>  <SCORE.INTRA.DIHEDRAL.0>
3.8185

>  <SCORE.INTRA.POLAR>
0.118298

>  <SCORE.INTRA.POLAR.0>
-0.118298

>  <SCORE.INTRA.REPUL>
0

>  <SCORE.INTRA.REPUL.0>
0

>  <SCORE.INTRA.SOLV>
-0.266217

>  <SCORE.INTRA.SOLV.lig_0>
-31.8262

>  <SCORE.INTRA.VDW>
0.447278

>  <SCORE.INTRA.VDW.0>
-0.589735

>  <SCORE.INTRA.norm>
0.163457

>  <SCORE.RESTR>
0

>  <SCORE.RESTR.CAVITY>
0

>  <SCORE.RESTR.norm>
0

>  <SCORE.SYSTEM>
-15.8274

>  <SCORE.SYSTEM.CONST>
0

>  <SCORE.SYSTEM.DIHEDRAL>
8.77592

>  <SCORE.SYSTEM.POLAR>
-2.46853

>  <SCORE.SYSTEM.SOLV>
-0.133287

>  <SCORE.SYSTEM.VDW>
-5.20401

>  <SCORE.SYSTEM.norm>
-1.31895

>  <SCORE.heavy>
12

>  <SCORE.norm>
-4.28039

$$$$
P129929643
 OpenBabel12072022113D
libRbt.so/2013.1/901 2013/11/27
 14 14  0  0  0  0  0  0  0  0999 V2000
  -30.6388   18.5452  -18.2695 C   0  0  0  0  0  0  0  0  0  0  0  0
  -30.1412   18.3719  -16.9531 O   0  0  0  0  0  0  0  0  0  0  0  0
  -29.1772   17.3483  -16.9706 N   0  0  0  0  0  0  0  0  0  0  0  0
  -29.1578   16.6955  -15.8439 C   0  0  0  0  0  0  0  0  0  0  0  0
  -28.1114   15.5326  -15.8292 C   0  0  1  0  0  0  0  0  0  0  0  0
  -28.5273   14.3974  -16.7630 C   0  0  0  0  0  0  0  0  0  0  0  0
  -27.7945   13.0894  -16.4657 C   0  0  0  0  0  0  0  0  0  0  0  0
  -26.3568   13.0264  -16.9679 C   0  0  0  0  0  0  0  0  0  0  0  0
  -25.4382   14.1318  -16.4523 C   0  0  0  0  0  0  0  0  0  0  0  0
  -25.7871   15.4978  -17.0181 C   0  0  0  0  0  0  0  0  0  0  0  0
  -26.8084   16.1697  -16.2220 N   0  3  0  0  0  0  0  0  0  0  0  0
  -26.4546   16.6476  -15.3892 H   0  0  0  0  0  0  0  0  0  0  0  0
  -27.1989   16.9896  -16.7534 H   0  0  0  0  0  0  0  0  0  0  0  0
  -29.8287   16.8128  -14.7871 O   0  5  0  0  0  0  0  0  0  0  0  0
  1  2  1  0  0  0  0
  2  3  1  0  0  0  0
  3  4  2  0  0  0  0
  4 14  1  0  0  0  0
  5  4  1  6  0  0  0
  5  6  1  0  0  0  0
  5 11  1  0  0  0  0
  6  7  1  0  0  0  0
  7  8  1  0  0  0  0
  8  9  1  0  0  0  0
  9 10  1  0  0  0  0
 10 11  1  0  0  0  0
 11 12  1  0  0  0  0
 11 13  1  0  0  0  0
M  CHG  2  11   1  14  -1
M  END
>  <CHROM.0>
-56.27603180,174.31391303,-73.56856589,-41.35338879,-176.72656807,-55.89598870
-168.51187980,-59.00158369,-169.21813332

>  <CHROM.1>
-148.62967021,-69.30839925,-28.17693609,15.86144205,-16.54666238,-2.36876268
-0.35833679,2.72430722

>  <Name>
P129929643

>  <RI>
0

>  <Rbt.Current_Directory>
/home/fstefaniak/projects/zuza/docking/adenine/4TZX

>  <Rbt.Executable>
rbdock ($Id: //depot/dev/client3/rdock/2013.1/src/exe/rbdock.cxx#4 $)

>  <Rbt.Library>
libRbt.so (2013.1, Build901 2013/11/27)

>  <Rbt.Parameter_File>
/home/fstefaniak/progs/rDock//data/scripts/dock_solv.prm

>  <Rbt.Receptor>
4tzx.prm

>  <SCORE>
-51.7827

>  <SCORE.INTER>
-27.9466

>  <SCORE.INTER.CONST>
1

>  <SCORE.INTER.POLAR>
-3.23223

>  <SCORE.INTER.ROT>
2

>  <SCORE.INTER.SOLV>
18.638

>  <SCORE.INTER.VDW>
-19.003

>  <SCORE.INTER.norm>
-2.32889

>  <SCORE.INTRA>
-3.68028

>  <SCORE.INTRA.DIHEDRAL>
-0.552658

>  <SCORE.INTRA.DIHEDRAL.0>
3.04114

>  <SCORE.INTRA.POLAR>
-0.593668

>  <SCORE.INTRA.POLAR.0>
0

>  <SCORE.INTRA.REPUL>
0

>  <SCORE.INTRA.REPUL.0>
0

>  <SCORE.INTRA.SOLV>
-1.94723

>  <SCORE.INTRA.SOLV.lig_0>
-37.9232

>  <SCORE.INTRA.VDW>
-0.411868

>  <SCORE.INTRA.VDW.0>
-0.325588

>  <SCORE.INTRA.norm>
-0.30669

>  <SCORE.RESTR>
0

>  <SCORE.RESTR.CAVITY>
0

>  <SCORE.RESTR.norm>
0

>  <SCORE.SYSTEM>
-20.1558

>  <SCORE.SYSTEM.CONST>
0

>  <SCORE.SYSTEM.DIHEDRAL>
5.91563

>  <SCORE.SYSTEM.POLAR>
-3.07561

>  <SCORE.SYSTEM.SOLV>
-0.0259732

>  <SCORE.SYSTEM.VDW>
-5.14837

>  <SCORE.SYSTEM.norm>
-1.67965

>  <SCORE.heavy>
12

>  <SCORE.norm>
-4.31523

$$$$
P129929643
 OpenBabel12072022113D
libRbt.so/2013.1/901 2013/11/27
 14 14  0  0  0  0  0  0  0  0999 V2000
  -30.8771   18.4096  -17.9403 C   0  0  0  0  0  0  0  0  0  0  0  0
  -30.0040   18.4916  -16.8261 O   0  0  0  0  0  0  0  0  0  0  0  0
  -29.0950   17.4206  -16.8905 N   0  0  0  0  0  0  0  0  0  0  0  0
  -29.0983   16.7286  -15.7873 C   0  0  0  0  0  0  0  0  0  0  0  0
  -28.1141   15.5131  -15.8253 C   0  0  1  0  0  0  0  0  0  0  0  0
  -28.5922   14.4397  -16.8015 C   0  0  0  0  0  0  0  0  0  0  0  0
  -27.9276   13.0844  -16.5611 C   0  0  0  0  0  0  0  0  0  0  0  0
  -26.4970   12.9670  -17.0737 C   0  0  0  0  0  0  0  0  0  0  0  0
  -25.5201   14.0013  -16.5195 C   0  0  0  0  0  0  0  0  0  0  0  0
  -25.7991   15.4054  -17.0280 C   0  0  0  0  0  0  0  0  0  0  0  0
  -26.7810   16.0969  -16.1998 N   0  3  0  0  0  0  0  0  0  0  0  0
  -26.3997   16.5217  -15.3505 H   0  0  0  0  0  0  0  0  0  0  0  0
  -27.1300   16.9568  -16.6956 H   0  0  0  0  0  0  0  0  0  0  0  0
  -29.7514   16.8434  -14.7191 O   0  5  0  0  0  0  0  0  0  0  0  0
  1  2  1  0  0  0  0
  2  3  1  0  0  0  0
  3  4  2  0  0  0  0
  4 14  1  0  0  0  0
  5  4  1  6  0  0  0
  5  6  1  0  0  0  0
  5 11  1  0  0  0  0
  6  7  1  0  0  0  0
  7  8  1  0  0  0  0
  8  9  1  0  0  0  0
  9 10  1  0  0  0  0
 10 11  1  0  0  0  0
 11 12  1  0  0  0  0
 11 13  1  0  0  0  0
M  CHG  2  11   1  14  -1
M  END
>  <CHROM.0>
-60.77694745,172.55011305,-71.79280247,-43.20551512,-59.30397444,-61.50912753
-172.41675318,-59.69579902,-168.88193948

>  <CHROM.1>
-125.88227308,-68.82825906,-28.19940077,15.84349029,-16.51246982,2.30152230
0.14731667,-0.13880857

>  <Name>
P129929643

>  <RI>
0

>  <Rbt.Current_Directory>
/home/fstefaniak/projects/zuza/docking/adenine/4TZX

>  <Rbt.Executable>
rbdock ($Id: //depot/dev/client3/rdock/2013.1/src/exe/rbdock.cxx#4 $)

>  <Rbt.Library>
libRbt.so (2013.1, Build901 2013/11/27)

>  <Rbt.Parameter_File>
/home/fstefaniak/progs/rDock//data/scripts/dock_solv.prm

>  <Rbt.Receptor>
4tzx.prm

>  <SCORE>
-51.3402

>  <SCORE.INTER>
-27.266

>  <SCORE.INTER.CONST>
1

>  <SCORE.INTER.POLAR>
-3.3755

>  <SCORE.INTER.ROT>
2

>  <SCORE.INTER.SOLV>
18.5588

>  <SCORE.INTER.VDW>
-18.0452

>  <SCORE.INTER.norm>
-2.27216

>  <SCORE.INTRA>
-3.92829

>  <SCORE.INTRA.DIHEDRAL>
-1.32332

>  <SCORE.INTRA.DIHEDRAL.0>
3.04114

>  <SCORE.INTRA.POLAR>
-0.590309

>  <SCORE.INTRA.POLAR.0>
0

>  <SCORE.INTRA.REPUL>
0

>  <SCORE.INTRA.REPUL.0>
0

>  <SCORE.INTRA.SOLV>
-1.81786

>  <SCORE.INTRA.SOLV.lig_0>
-37.9232

>  <SCORE.INTRA.VDW>
-0.350647

>  <SCORE.INTRA.VDW.0>
-0.325588

>  <SCORE.INTRA.norm>
-0.327358

>  <SCORE.RESTR>
0

>  <SCORE.RESTR.CAVITY>
0

>  <SCORE.RESTR.norm>
0

>  <SCORE.SYSTEM>
-20.1459

>  <SCORE.SYSTEM.CONST>
0

>  <SCORE.SYSTEM.DIHEDRAL>
5.09164

>  <SCORE.SYSTEM.POLAR>
-3.02782

>  <SCORE.SYSTEM.SOLV>
0.138614

>  <SCORE.SYSTEM.VDW>
-5.08129

>  <SCORE.SYSTEM.norm>
-1.67883

>  <SCORE.heavy>
12

>  <SCORE.norm>
-4.27835

$$$$
P129929643
 OpenBabel12072022113D
libRbt.so/2013.1/901 2013/11/27
 14 14  0  0  0  0  0  0  0  0999 V2000
  -31.3229   18.1486  -13.9473 C   0  0  0  0  0  0  0  0  0  0  0  0
  -31.2126   17.4258  -15.1621 O   0  0  0  0  0  0  0  0  0  0  0  0
  -30.2028   16.4580  -15.0164 N   0  0  0  0  0  0  0  0  0  0  0  0
  -29.3882   16.4657  -16.0325 C   0  0  0  0  0  0  0  0  0  0  0  0
  -28.2358   15.4160  -15.8999 C   0  0  1  0  0  0  0  0  0  0  0  0
  -28.4780   14.2063  -16.8010 C   0  0  0  0  0  0  0  0  0  0  0  0
  -27.6408   12.9926  -16.3982 C   0  0  0  0  0  0  0  0  0  0  0  0
  -26.1747   13.0541  -16.8108 C   0  0  0  0  0  0  0  0  0  0  0  0
  -25.4038   14.2671  -16.2956 C   0  0  0  0  0  0  0  0  0  0  0  0
  -25.8483   15.5661  -16.9461 C   0  0  0  0  0  0  0  0  0  0  0  0
  -26.9792   16.1643  -16.2451 N   0  3  0  0  0  0  0  0  0  0  0  0
  -26.7279   16.7100  -15.4168 H   0  0  0  0  0  0  0  0  0  0  0  0
  -27.4136   16.9175  -16.8375 H   0  0  0  0  0  0  0  0  0  0  0  0
  -29.3457   17.1644  -17.0769 O   0  5  0  0  0  0  0  0  0  0  0  0
  1  2  1  0  0  0  0
  2  3  1  0  0  0  0
  3  4  2  0  0  0  0
  4 14  1  0  0  0  0
  5  4  1  6  0  0  0
  5  6  1  0  0  0  0
  5 11  1  0  0  0  0
  6  7  1  0  0  0  0
  7  8  1  0  0  0  0
  8  9  1  0  0  0  0
  9 10  1  0  0  0  0
 10 11  1  0  0  0  0
 11 12  1  0  0  0  0
 11 13  1  0  0  0  0
M  CHG  2  11   1  14  -1
M  END
>  <CHROM.0>
-57.86413205,174.40444956,-63.71812652,-42.33189783,-62.59708677,-63.93790207
-69.63930035,-60.60319667,-168.62655240

>  <CHROM.1>
-132.65353282,104.45340619,-28.38775939,15.66923897,-16.04396338,-2.49963102
-0.32464248,-3.09981840

>  <Name>
P129929643

>  <RI>
0

>  <Rbt.Current_Directory>
/home/fstefaniak/projects/zuza/docking/adenine/4TZX

>  <Rbt.Executable>
rbdock ($Id: //depot/dev/client3/rdock/2013.1/src/exe/rbdock.cxx#4 $)

>  <Rbt.Library>
libRbt.so (2013.1, Build901 2013/11/27)

>  <Rbt.Parameter_File>
/home/fstefaniak/progs/rDock//data/scripts/dock_solv.prm

>  <Rbt.Receptor>
4tzx.prm

>  <SCORE>
-47.2271

>  <SCORE.INTER>
-25.6334

>  <SCORE.INTER.CONST>
1

>  <SCORE.INTER.POLAR>
-2.99912

>  <SCORE.INTER.ROT>
2

>  <SCORE.INTER.SOLV>
18.9236

>  <SCORE.INTER.VDW>
-18.3331

>  <SCORE.INTER.norm>
-2.13612

>  <SCORE.INTRA>
-0.828223

>  <SCORE.INTRA.DIHEDRAL>
-1.07041

>  <SCORE.INTRA.DIHEDRAL.0>
3.04114

>  <SCORE.INTRA.POLAR>
0

>  <SCORE.INTRA.POLAR.0>
0

>  <SCORE.INTRA.REPUL>
0

>  <SCORE.INTRA.REPUL.0>
0

>  <SCORE.INTRA.SOLV>
0.019096

>  <SCORE.INTRA.SOLV.lig_0>
-37.9232

>  <SCORE.INTRA.VDW>
-0.302566

>  <SCORE.INTRA.VDW.0>
-0.325588

>  <SCORE.INTRA.norm>
-0.0690186

>  <SCORE.RESTR>
0

>  <SCORE.RESTR.CAVITY>
0

>  <SCORE.RESTR.norm>
0

>  <SCORE.SYSTEM>
-20.7655

>  <SCORE.SYSTEM.CONST>
0

>  <SCORE.SYSTEM.DIHEDRAL>
4.83876

>  <SCORE.SYSTEM.POLAR>
-3.07531

>  <SCORE.SYSTEM.SOLV>
0.156762

>  <SCORE.SYSTEM.VDW>
-5.25783

>  <SCORE.SYSTEM.norm>
-1.73046

>  <SCORE.heavy>
12

>  <SCORE.norm>
-3.93559

$$$$
P129929700
 OpenBabel12072022113D
libRbt.so/2013.1/901 2013/11/27
 12 11  0  0  0  0  0  0  0  0999 V2000
  -30.4455   17.3639  -14.9997 C   0  0  0  0  0  0  0  0  0  0  0  0
  -29.4942   16.7634  -16.0326 C   0  0  0  0  0  0  0  0  0  0  0  0
  -29.7696   17.2854  -17.4395 C   0  0  0  0  0  0  0  0  0  0  0  0
  -27.9981   16.9616  -15.5929 C   0  0  0  0  0  0  0  0  0  0  0  0
  -27.8605   17.6699  -14.5085 N   0  0  0  0  0  0  0  0  0  0  0  0
  -26.5060   17.8124  -14.1585 O   0  0  0  0  0  0  0  0  0  0  0  0
  -26.1898   19.1943  -14.1298 C   0  0  0  0  0  0  0  0  0  0  0  0
  -27.1579   16.3978  -16.3406 O   0  5  0  0  0  0  0  0  0  0  0  0
  -29.7018   15.2725  -16.0439 N   0  3  0  0  0  0  0  0  0  0  0  0
  -29.3377   15.0403  -15.0870 H   0  0  0  0  0  0  0  0  0  0  0  0
  -30.6563   14.9404  -16.1360 H   0  0  0  0  0  0  0  0  0  0  0  0
  -29.0221   14.8095  -16.6471 H   0  0  0  0  0  0  0  0  0  0  0  0
  1  2  1  0  0  0  0
  2  3  1  0  0  0  0
  2  4  1  0  0  0  0
  2  9  1  0  0  0  0
  4  5  2  0  0  0  0
  4  8  1  0  0  0  0
  5  6  1  0  0  0  0
  6  7  1  0  0  0  0
  9 10  1  0  0  0  0
  9 11  1  0  0  0  0
  9 12  1  0  0  0  0
M  CHG  2   8  -1   9   1
M  END
>  <CHROM.0>
-60.78384703,80.75124286,-67.20573347,-43.35198487,-55.49171702,-56.45783925
-67.48875890,-61.55320118,-169.21874991

>  <CHROM.1>
-4.72263433,-67.16703634,120.98235803,-28.33020880,17.16449224,-15.46708034
2.43780439,0.03230212,-2.38078597

>  <Name>
P129929700

>  <RI>
0

>  <Rbt.Current_Directory>
/home/fstefaniak/projects/zuza/docking/adenine/4TZX

>  <Rbt.Executable>
rbdock ($Id: //depot/dev/client3/rdock/2013.1/src/exe/rbdock.cxx#4 $)

>  <Rbt.Library>
libRbt.so (2013.1, Build901 2013/11/27)

>  <Rbt.Parameter_File>
/home/fstefaniak/progs/rDock//data/scripts/dock_solv.prm

>  <Rbt.Receptor>
4tzx.prm

>  <SCORE>
-42.126

>  <SCORE.INTER>
-21.4345

>  <SCORE.INTER.CONST>
1

>  <SCORE.INTER.POLAR>
-3.68055

>  <SCORE.INTER.ROT>
2

>  <SCORE.INTER.SOLV>
19.6486

>  <SCORE.INTER.VDW>
-13.5041

>  <SCORE.INTER.norm>
-2.38162

>  <SCORE.INTRA>
-1.72248

>  <SCORE.INTRA.DIHEDRAL>
-3.37674

>  <SCORE.INTRA.DIHEDRAL.0>
4.81264

>  <SCORE.INTRA.POLAR>
0

>  <SCORE.INTRA.POLAR.0>
0

>  <SCORE.INTRA.REPUL>
0

>  <SCORE.INTRA.REPUL.0>
0

>  <SCORE.INTRA.SOLV>
-0.490445

>  <SCORE.INTRA.SOLV.lig_0>
-39.2359

>  <SCORE.INTRA.VDW>
0.21111

>  <SCORE.INTRA.VDW.0>
2.37471

>  <SCORE.INTRA.norm>
-0.191387

>  <SCORE.RESTR>
0

>  <SCORE.RESTR.CAVITY>
0

>  <SCORE.RESTR.norm>
0

>  <SCORE.SYSTEM>
-18.969

>  <SCORE.SYSTEM.CONST>
0

>  <SCORE.SYSTEM.DIHEDRAL>
6.41774

>  <SCORE.SYSTEM.POLAR>
-3.05363

>  <SCORE.SYSTEM.SOLV>
0.195402

>  <SCORE.SYSTEM.VDW>
-4.67161

>  <SCORE.SYSTEM.norm>
-2.10767

>  <SCORE.heavy>
9

>  <SCORE.norm>
-4.68067

$$$$
P129929700
 OpenBabel12072022113D
libRbt.so/2013.1/901 2013/11/27
 12 11  0  0  0  0  0  0  0  0999 V2000
  -25.5283   12.0581  -14.5992 C   0  0  0  0  0  0  0  0  0  0  0  0
  -25.4142   12.3421  -16.0955 C   0  0  0  0  0  0  0  0  0  0  0  0
  -26.0624   11.2486  -16.9392 C   0  0  0  0  0  0  0  0  0  0  0  0
  -25.9629   13.7759  -16.4333 C   0  0  0  0  0  0  0  0  0  0  0  0
  -25.5961   14.6909  -15.5819 N   0  0  0  0  0  0  0  0  0  0  0  0
  -26.1096   15.9521  -15.9329 O   0  0  0  0  0  0  0  0  0  0  0  0
  -25.0532   16.7403  -16.4558 C   0  0  0  0  0  0  0  0  0  0  0  0
  -26.6602   13.8322  -17.4790 O   0  5  0  0  0  0  0  0  0  0  0  0
  -23.9516   12.3924  -16.4485 N   0  3  0  0  0  0  0  0  0  0  0  0
  -24.0286   12.4632  -17.4931 H   0  0  0  0  0  0  0  0  0  0  0  0
  -23.4177   13.1779  -16.0913 H   0  0  0  0  0  0  0  0  0  0  0  0
  -23.5116   11.4800  -16.3300 H   0  0  0  0  0  0  0  0  0  0  0  0
  1  2  1  0  0  0  0
  2  3  1  0  0  0  0
  2  4  1  0  0  0  0
  2  9  1  0  0  0  0
  4  5  2  0  0  0  0
  4  8  1  0  0  0  0
  5  6  1  0  0  0  0
  6  7  1  0  0  0  0
  9 10  1  0  0  0  0
  9 11  1  0  0  0  0
  9 12  1  0  0  0  0
M  CHG  2   8  -1   9   1
M  END
>  <CHROM.0>
-63.17806032,48.91854052,58.50826407,-43.26562748,-178.12244022,-65.63066573
55.00599233,-60.91609138,-169.00696049

>  <CHROM.1>
42.53081929,172.95181040,-105.99458307,-25.56871020,13.68844149,-16.23616082
-1.47491913,-0.83146968,0.05546722

>  <Name>
P129929700

>  <RI>
0

>  <Rbt.Current_Directory>
/home/fstefaniak/projects/zuza/docking/adenine/4TZX

>  <Rbt.Executable>
rbdock ($Id: //depot/dev/client3/rdock/2013.1/src/exe/rbdock.cxx#4 $)

>  <Rbt.Library>
libRbt.so (2013.1, Build901 2013/11/27)

>  <Rbt.Parameter_File>
/home/fstefaniak/progs/rDock//data/scripts/dock_solv.prm

>  <Rbt.Receptor>
4tzx.prm

>  <SCORE>
-41.8431

>  <SCORE.INTER>
-21.8812

>  <SCORE.INTER.CONST>
1

>  <SCORE.INTER.POLAR>
-3.8632

>  <SCORE.INTER.ROT>
2

>  <SCORE.INTER.SOLV>
12.7307

>  <SCORE.INTER.VDW>
-10.8871

>  <SCORE.INTER.norm>
-2.43125

>  <SCORE.INTRA>
-1.7089

>  <SCORE.INTRA.DIHEDRAL>
-3.76143

>  <SCORE.INTRA.DIHEDRAL.0>
4.81264

>  <SCORE.INTRA.POLAR>
0

>  <SCORE.INTRA.POLAR.0>
0

>  <SCORE.INTRA.REPUL>
0

>  <SCORE.INTRA.REPUL.0>
0

>  <SCORE.INTRA.SOLV>
-1.13794

>  <SCORE.INTRA.SOLV.lig_0>
-39.2359

>  <SCORE.INTRA.VDW>
0.740781

>  <SCORE.INTRA.VDW.0>
2.37471

>  <SCORE.INTRA.norm>
-0.189878

>  <SCORE.RESTR>
0.234214

>  <SCORE.RESTR.CAVITY>
0.234214

>  <SCORE.RESTR.norm>
0.0260237

>  <SCORE.SYSTEM>
-18.4872

>  <SCORE.SYSTEM.CONST>
0

>  <SCORE.SYSTEM.DIHEDRAL>
4.82618

>  <SCORE.SYSTEM.POLAR>
-3.05099

>  <SCORE.SYSTEM.SOLV>
-0.0241993

>  <SCORE.SYSTEM.VDW>
-3.75546

>  <SCORE.SYSTEM.norm>
-2.05413

>  <SCORE.heavy>
9

>  <SCORE.norm>
-4.64923

$$$$
P129929700
 OpenBabel12072022113D
libRbt.so/2013.1/901 2013/11/27
 12 11  0  0  0  0  0  0  0  0999 V2000
  -25.7634   15.3845  -16.6379 C   0  0  0  0  0  0  0  0  0  0  0  0
  -26.6654   14.1563  -16.5366 C   0  0  0  0  0  0  0  0  0  0  0  0
  -26.0342   13.0470  -15.7006 C   0  0  0  0  0  0  0  0  0  0  0  0
  -28.0983   14.5583  -16.0305 C   0  0  0  0  0  0  0  0  0  0  0  0
  -28.1451   15.7330  -15.4698 N   0  0  0  0  0  0  0  0  0  0  0  0
  -29.4475   16.0438  -15.0402 O   0  0  0  0  0  0  0  0  0  0  0  0
  -29.9399   17.1143  -15.8288 C   0  0  0  0  0  0  0  0  0  0  0  0
  -28.9883   13.6973  -16.2529 O   0  5  0  0  0  0  0  0  0  0  0  0
  -26.8802   13.6217  -17.9274 N   0  3  0  0  0  0  0  0  0  0  0  0
  -27.7182   13.0143  -17.7513 H   0  0  0  0  0  0  0  0  0  0  0  0
  -27.0946   14.2976  -18.6533 H   0  0  0  0  0  0  0  0  0  0  0  0
  -26.1681   12.9339  -18.1726 H   0  0  0  0  0  0  0  0  0  0  0  0
  1  2  1  0  0  0  0
  2  3  1  0  0  0  0
  2  4  1  0  0  0  0
  2  9  1  0  0  0  0
  4  5  2  0  0  0  0
  4  8  1  0  0  0  0
  5  6  1  0  0  0  0
  6  7  1  0  0  0  0
  9 10  1  0  0  0  0
  9 11  1  0  0  0  0
  9 12  1  0  0  0  0
M  CHG  2   8  -1   9   1
M  END
>  <CHROM.0>
-58.87940414,-175.95178940,-68.77791919,-43.97627779,-57.38958026,-64.07000542
-65.56848949,-61.70221402,-169.08832601

>  <CHROM.1>
-17.23448310,-162.97213762,-112.51012571,-27.79882632,14.80928491,-16.18322380
-0.72515160,0.18104678,0.24832953

>  <Name>
P129929700

>  <RI>
0

>  <Rbt.Current_Directory>
/home/fstefaniak/projects/zuza/docking/adenine/4TZX

>  <Rbt.Executable>
rbdock ($Id: //depot/dev/client3/rdock/2013.1/src/exe/rbdock.cxx#4 $)

>  <Rbt.Library>
libRbt.so (2013.1, Build901 2013/11/27)

>  <Rbt.Parameter_File>
/home/fstefaniak/progs/rDock//data/scripts/dock_solv.prm

>  <Rbt.Receptor>
4tzx.prm

>  <SCORE>
-40.194

>  <SCORE.INTER>
-18.1578

>  <SCORE.INTER.CONST>
1

>  <SCORE.INTER.POLAR>
-3.2211

>  <SCORE.INTER.ROT>
2

>  <SCORE.INTER.SOLV>
18.7944

>  <SCORE.INTER.VDW>
-12.5663

>  <SCORE.INTER.norm>
-2.01753

>  <SCORE.INTRA>
-1.02354

>  <SCORE.INTRA.DIHEDRAL>
-2.85147

>  <SCORE.INTRA.DIHEDRAL.0>
4.81264

>  <SCORE.INTRA.POLAR>
0

>  <SCORE.INTRA.POLAR.0>
0

>  <SCORE.INTRA.REPUL>
0

>  <SCORE.INTRA.REPUL.0>
0

>  <SCORE.INTRA.SOLV>
-0.173339

>  <SCORE.INTRA.SOLV.lig_0>
-39.2359

>  <SCORE.INTRA.VDW>
0.48887

>  <SCORE.INTRA.VDW.0>
2.37471

>  <SCORE.INTRA.norm>
-0.113726

>  <SCORE.RESTR>
0

>  <SCORE.RESTR.CAVITY>
0

>  <SCORE.RESTR.norm>
0

>  <SCORE.SYSTEM>
-21.0126

>  <SCORE.SYSTEM.CONST>
0

>  <SCORE.SYSTEM.DIHEDRAL>
4.50051

>  <SCORE.SYSTEM.POLAR>
-3.02893

>  <SCORE.SYSTEM.SOLV>
0.148833

>  <SCORE.SYSTEM.VDW>
-5.46177

>  <SCORE.SYSTEM.norm>
-2.33474

>  <SCORE.heavy>
9

>  <SCORE.norm>
-4.466

$$$$
P129929867
 OpenBabel12072022113D
libRbt.so/2013.1/901 2013/11/27
 14 14  0  0  0  0  0  0  0  0999 V2000
  -29.6829   17.1478  -17.0809 C   0  0  0  0  0  0  0  0  0  0  0  0
  -29.4326   16.8232  -15.6221 C   0  0  0  0  0  0  0  0  0  0  0  0
  -28.0305   16.7024  -15.4192 O   0  0  0  0  0  0  0  0  0  0  0  0
  -27.5928   15.5037  -16.0099 N   0  0  0  0  0  0  0  0  0  0  0  0
  -26.2948   15.4685  -16.1081 C   0  0  0  0  0  0  0  0  0  0  0  0
  -25.7382   14.1645  -16.7682 C   0  0  1  0  0  0  0  0  0  0  0  0
  -25.0355   13.1478  -15.8727 C   0  0  0  0  0  0  0  0  0  0  0  0
  -25.9938   12.3561  -14.9887 C   0  0  0  0  0  0  0  0  0  0  0  0
  -27.1000   11.7187  -15.8208 C   0  0  0  0  0  0  0  0  0  0  0  0
  -27.8473   12.7698  -16.6198 C   0  0  0  0  0  0  0  0  0  0  0  0
  -26.9033   13.5157  -17.4805 N   0  3  0  0  0  0  0  0  0  0  0  0
  -26.6131   13.0417  -18.3331 H   0  0  0  0  0  0  0  0  0  0  0  0
  -27.4072   14.3917  -17.7534 H   0  0  0  0  0  0  0  0  0  0  0  0
  -25.4062   16.2890  -15.7655 O   0  5  0  0  0  0  0  0  0  0  0  0
  1  2  1  0  0  0  0
  2  3  1  0  0  0  0
  3  4  1  0  0  0  0
  4  5  2  0  0  0  0
  5 14  1  0  0  0  0
  6  7  1  0  0  0  0
  6 11  1  0  0  0  0
  6  5  1  1  0  0  0
  7  8  1  0  0  0  0
  8  9  1  0  0  0  0
  9 10  1  0  0  0  0
 10 11  1  0  0  0  0
 11 12  1  0  0  0  0
 11 13  1  0  0  0  0
M  CHG  2  11   1  14  -1
M  END
>  <CHROM.0>
-53.90797184,-63.48657081,-58.10307975,-42.53508766,-57.72867947,-64.47855858
-65.20798272,-175.10175594,-168.83235619

>  <CHROM.1>
-72.36350780,166.50837829,-107.33740394,-27.11110520,14.67357661,-16.14173716
2.13155903,-0.19400570,0.09109732

>  <Name>
P129929867

>  <RI>
0

>  <Rbt.Current_Directory>
/home/fstefaniak/projects/zuza/docking/adenine/4TZX

>  <Rbt.Executable>
rbdock ($Id: //depot/dev/client3/rdock/2013.1/src/exe/rbdock.cxx#4 $)

>  <Rbt.Library>
libRbt.so (2013.1, Build901 2013/11/27)

>  <Rbt.Parameter_File>
/home/fstefaniak/progs/rDock//data/scripts/dock_solv.prm

>  <Rbt.Receptor>
4tzx.prm

>  <SCORE>
-40.7803

>  <SCORE.INTER>
-19.7111

>  <SCORE.INTER.CONST>
1

>  <SCORE.INTER.POLAR>
-2.46123

>  <SCORE.INTER.ROT>
3

>  <SCORE.INTER.SOLV>
18.1801

>  <SCORE.INTER.VDW>
-16.5967

>  <SCORE.INTER.norm>
-1.64259

>  <SCORE.INTRA>
-0.260841

>  <SCORE.INTRA.DIHEDRAL>
0.622612

>  <SCORE.INTRA.DIHEDRAL.0>
3.03576

>  <SCORE.INTRA.POLAR>
-0.145121

>  <SCORE.INTRA.POLAR.0>
0

>  <SCORE.INTRA.REPUL>
0

>  <SCORE.INTRA.REPUL.0>
0

>  <SCORE.INTRA.SOLV>
-1.38059

>  <SCORE.INTRA.SOLV.lig_0>
-38.5828

>  <SCORE.INTRA.VDW>
0.61156

>  <SCORE.INTRA.VDW.0>
-0.647759

>  <SCORE.INTRA.norm>
-0.0217368

>  <SCORE.RESTR>
0.0368844

>  <SCORE.RESTR.CAVITY>
0.0368844

>  <SCORE.RESTR.norm>
0.0030737

>  <SCORE.SYSTEM>
-20.8452

>  <SCORE.SYSTEM.CONST>
0

>  <SCORE.SYSTEM.DIHEDRAL>
4.62679

>  <SCORE.SYSTEM.POLAR>
-3.11736

>  <SCORE.SYSTEM.SOLV>
0.0731973

>  <SCORE.SYSTEM.VDW>
-5.07227

>  <SCORE.SYSTEM.norm>
-1.7371

>  <SCORE.heavy>
12

>  <SCORE.norm>
-3.39836

$$$$
P129929867
 OpenBabel12072022113D
libRbt.so/2013.1/901 2013/11/27
 14 14  0  0  0  0  0  0  0  0999 V2000
  -30.4244   17.6359  -15.2691 C   0  0  0  0  0  0  0  0  0  0  0  0
  -29.7082   16.4546  -15.8917 C   0  0  0  0  0  0  0  0  0  0  0  0
  -28.3957   16.3837  -15.3495 O   0  0  0  0  0  0  0  0  0  0  0  0
  -27.7761   15.2140  -15.8244 N   0  0  0  0  0  0  0  0  0  0  0  0
  -26.5627   15.4512  -16.2330 C   0  0  0  0  0  0  0  0  0  0  0  0
  -25.8164   14.1930  -16.7861 C   0  0  1  0  0  0  0  0  0  0  0  0
  -25.1005   13.2849  -15.7898 C   0  0  0  0  0  0  0  0  0  0  0  0
  -26.0516   12.4249  -14.9639 C   0  0  0  0  0  0  0  0  0  0  0  0
  -27.0040   11.6484  -15.8652 C   0  0  0  0  0  0  0  0  0  0  0  0
  -27.7765   12.5890  -16.7708 C   0  0  0  0  0  0  0  0  0  0  0  0
  -26.8371   13.4028  -17.5730 N   0  3  0  0  0  0  0  0  0  0  0  0
  -26.4214   12.9354  -18.3758 H   0  0  0  0  0  0  0  0  0  0  0  0
  -27.4000   14.2116  -17.9260 H   0  0  0  0  0  0  0  0  0  0  0  0
  -25.8791   16.5059  -16.2604 O   0  5  0  0  0  0  0  0  0  0  0  0
  1  2  1  0  0  0  0
  2  3  1  0  0  0  0
  3  4  1  0  0  0  0
  4  5  2  0  0  0  0
  5 14  1  0  0  0  0
  6  7  1  0  0  0  0
  6 11  1  0  0  0  0
  6  5  1  1  0  0  0
  7  8  1  0  0  0  0
  8  9  1  0  0  0  0
  9 10  1  0  0  0  0
 10 11  1  0  0  0  0
 11 12  1  0  0  0  0
 11 13  1  0  0  0  0
M  CHG  2  11   1  14  -1
M  END
>  <CHROM.0>
-57.75515124,-64.77896203,-67.04489581,-43.05028113,-56.05855514,-61.34189287
-66.82849647,-173.36239556,-167.80761574

>  <CHROM.1>
174.22754071,134.18805885,-85.07503188,-27.30551865,14.63955530,-16.05592373
2.19840490,0.12063357,0.05320421

>  <Name>
P129929867

>  <RI>
0

>  <Rbt.Current_Directory>
/home/fstefaniak/projects/zuza/docking/adenine/4TZX

>  <Rbt.Executable>
rbdock ($Id: //depot/dev/client3/rdock/2013.1/src/exe/rbdock.cxx#4 $)

>  <Rbt.Library>
libRbt.so (2013.1, Build901 2013/11/27)

>  <Rbt.Parameter_File>
/home/fstefaniak/progs/rDock//data/scripts/dock_solv.prm

>  <Rbt.Receptor>
4tzx.prm

>  <SCORE>
-40.7116

>  <SCORE.INTER>
-18.1004

>  <SCORE.INTER.CONST>
1

>  <SCORE.INTER.POLAR>
-2.40745

>  <SCORE.INTER.ROT>
3

>  <SCORE.INTER.SOLV>
18.5255

>  <SCORE.INTER.VDW>
-15.8173

>  <SCORE.INTER.norm>
-1.50837

>  <SCORE.INTRA>
-1.5558

>  <SCORE.INTRA.DIHEDRAL>
-0.864234

>  <SCORE.INTRA.DIHEDRAL.0>
3.03576

>  <SCORE.INTRA.POLAR>
0

>  <SCORE.INTRA.POLAR.0>
0

>  <SCORE.INTRA.REPUL>
0

>  <SCORE.INTRA.REPUL.0>
0

>  <SCORE.INTRA.SOLV>
-2.11252

>  <SCORE.INTRA.SOLV.lig_0>
-38.5828

>  <SCORE.INTRA.VDW>
-0.0674252

>  <SCORE.INTRA.VDW.0>
-0.647759

>  <SCORE.INTRA.norm>
-0.12965

>  <SCORE.RESTR>
0

>  <SCORE.RESTR.CAVITY>
0

>  <SCORE.RESTR.norm>
0

>  <SCORE.SYSTEM>
-21.0553

>  <SCORE.SYSTEM.CONST>
0

>  <SCORE.SYSTEM.DIHEDRAL>
4.90865

>  <SCORE.SYSTEM.POLAR>
-3.06898

>  <SCORE.SYSTEM.SOLV>
0.0555132

>  <SCORE.SYSTEM.VDW>
-5.46169

>  <SCORE.SYSTEM.norm>
-1.75461

>  <SCORE.heavy>
12

>  <SCORE.norm>
-3.39263

$$$$
P129929867
 OpenBabel12072022113D
libRbt.so/2013.1/901 2013/11/27
 14 14  0  0  0  0  0  0  0  0999 V2000
  -30.4130   17.6014  -15.1663 C   0  0  0  0  0  0  0  0  0  0  0  0
  -29.7317   16.4008  -15.7913 C   0  0  0  0  0  0  0  0  0  0  0  0
  -28.3777   16.3722  -15.3582 O   0  0  0  0  0  0  0  0  0  0  0  0
  -27.7762   15.1967  -15.8420 N   0  0  0  0  0  0  0  0  0  0  0  0
  -26.5405   15.4059  -16.1954 C   0  0  0  0  0  0  0  0  0  0  0  0
  -25.8120   14.1402  -16.7549 C   0  0  1  0  0  0  0  0  0  0  0  0
  -25.1301   13.2039  -15.7609 C   0  0  0  0  0  0  0  0  0  0  0  0
  -26.1111   12.3526  -14.9612 C   0  0  0  0  0  0  0  0  0  0  0  0
  -27.0656   11.6085  -15.8873 C   0  0  0  0  0  0  0  0  0  0  0  0
  -27.8047   12.5771  -16.7910 C   0  0  0  0  0  0  0  0  0  0  0  0
  -26.8367   13.3821  -17.5678 N   0  3  0  0  0  0  0  0  0  0  0  0
  -26.4186   12.9172  -18.3708 H   0  0  0  0  0  0  0  0  0  0  0  0
  -27.3775   14.2072  -17.9177 H   0  0  0  0  0  0  0  0  0  0  0  0
  -25.8239   16.4384  -16.1653 O   0  5  0  0  0  0  0  0  0  0  0  0
  1  2  1  0  0  0  0
  2  3  1  0  0  0  0
  3  4  1  0  0  0  0
  4  5  2  0  0  0  0
  5 14  1  0  0  0  0
  6  7  1  0  0  0  0
  6 11  1  0  0  0  0
  6  5  1  1  0  0  0
  7  8  1  0  0  0  0
  8  9  1  0  0  0  0
  9 10  1  0  0  0  0
 10 11  1  0  0  0  0
 11 12  1  0  0  0  0
 11 13  1  0  0  0  0
M  CHG  2  11   1  14  -1
M  END
>  <CHROM.0>
-57.50268156,-64.33325598,-59.20755164,-42.58705033,-61.35095849,-177.42639364
-66.99095366,-59.70765484,-169.28299824

>  <CHROM.1>
174.91786900,142.63623005,-86.84291163,-27.31216567,14.59773950,-16.02756556
2.19232839,0.11771183,0.07408437

>  <Name>
P129929867

>  <RI>
0

>  <Rbt.Current_Directory>
/home/fstefaniak/projects/zuza/docking/adenine/4TZX

>  <Rbt.Executable>
rbdock ($Id: //depot/dev/client3/rdock/2013.1/src/exe/rbdock.cxx#4 $)

>  <Rbt.Library>
libRbt.so (2013.1, Build901 2013/11/27)

>  <Rbt.Parameter_File>
/home/fstefaniak/progs/rDock//data/scripts/dock_solv.prm

>  <Rbt.Receptor>
4tzx.prm

>  <SCORE>
-40.534

>  <SCORE.INTER>
-18.3323

>  <SCORE.INTER.CONST>
1

>  <SCORE.INTER.POLAR>
-2.4075

>  <SCORE.INTER.ROT>
3

>  <SCORE.INTER.SOLV>
18.3323

>  <SCORE.INTER.VDW>
-15.9073

>  <SCORE.INTER.norm>
-1.52769

>  <SCORE.INTRA>
-1.45105

>  <SCORE.INTRA.DIHEDRAL>
-0.608932

>  <SCORE.INTRA.DIHEDRAL.0>
3.03576

>  <SCORE.INTRA.POLAR>
0

>  <SCORE.INTRA.POLAR.0>
0

>  <SCORE.INTRA.REPUL>
0

>  <SCORE.INTRA.REPUL.0>
0

>  <SCORE.INTRA.SOLV>
-2.22007

>  <SCORE.INTRA.SOLV.lig_0>
-38.5828

>  <SCORE.INTRA.VDW>
-0.0365533

>  <SCORE.INTRA.VDW.0>
-0.647759

>  <SCORE.INTRA.norm>
-0.120921

>  <SCORE.RESTR>
0.0280331

>  <SCORE.RESTR.CAVITY>
0.0280331

>  <SCORE.RESTR.norm>
0.00233609

>  <SCORE.SYSTEM>
-20.7787

>  <SCORE.SYSTEM.CONST>
0

>  <SCORE.SYSTEM.DIHEDRAL>
4.36892

>  <SCORE.SYSTEM.POLAR>
-3.0691

>  <SCORE.SYSTEM.SOLV>
0.0776608

>  <SCORE.SYSTEM.VDW>
-5.10431

>  <SCORE.SYSTEM.norm>
-1.73156

>  <SCORE.heavy>
12

>  <SCORE.norm>
-3.37783

$$$$
P129960895
 OpenBabel12072022113D
libRbt.so/2013.1/901 2013/11/27
 11 11  0  0  0  0  0  0  0  0999 V2000
  -29.1809   15.5280  -16.1866 C   0  0  0  0  0  0  0  0  0  0  0  0
  -30.0510   16.7666  -15.9638 C   0  0  2  0  0  0  0  0  0  0  0  0
  -29.7605   17.9162  -16.9553 C   0  0  2  0  0  0  0  0  0  0  0  0
  -30.7332   19.0895  -16.8939 C   0  0  0  0  0  0  0  0  0  0  0  0
  -31.5640   18.9361  -18.1450 C   0  0  0  0  0  0  0  0  0  0  0  0
  -30.5852   18.3003  -19.1025 C   0  0  0  0  0  0  0  0  0  0  0  0
  -29.7883   17.4115  -18.3115 O   0  0  0  0  0  0  0  0  0  0  0  0
  -29.8564   17.2522  -14.5981 N   0  0  0  0  0  0  0  0  0  0  0  0
  -30.7866   18.0090  -13.9405 C   0  0  0  0  0  0  0  0  0  0  0  0
  -31.8280   18.4341  -14.4184 O   0  0  0  0  0  0  0  0  0  0  0  0
  -29.0843   16.8512  -14.0770 H   0  0  0  0  0  0  0  0  0  0  0  0
  2  8  1  0  0  0  0
  2  1  1  6  0  0  0
  3  4  1  0  0  0  0
  3  7  1  0  0  0  0
  3  2  1  1  0  0  0
  4  5  1  0  0  0  0
  5  6  1  0  0  0  0
  6  7  1  0  0  0  0
  8  9  1  0  0  0  0
  8 11  1  0  0  0  0
  9 10  2  0  0  0  0
M  END
>  <CHROM.0>
-62.06924885,-174.84147782,-66.90182613,-42.84273506,-176.43467005,-62.64400440
-67.56673307,-60.04025575,-168.70566633

>  <CHROM.1>
-156.26877844,171.84140955,-30.41084929,17.75085795,-16.44841014,-1.58924203
0.89941984,-1.38283794

>  <Name>
P129960895

>  <RI>
0

>  <Rbt.Current_Directory>
/home/fstefaniak/projects/zuza/docking/adenine/4TZX

>  <Rbt.Executable>
rbdock ($Id: //depot/dev/client3/rdock/2013.1/src/exe/rbdock.cxx#4 $)

>  <Rbt.Library>
libRbt.so (2013.1, Build901 2013/11/27)

>  <Rbt.Parameter_File>
/home/fstefaniak/progs/rDock//data/scripts/dock_solv.prm

>  <Rbt.Receptor>
4tzx.prm

>  <SCORE>
-45.0961

>  <SCORE.INTER>
-24.9772

>  <SCORE.INTER.CONST>
1

>  <SCORE.INTER.POLAR>
-1.78604

>  <SCORE.INTER.ROT>
2

>  <SCORE.INTER.SOLV>
10.6867

>  <SCORE.INTER.VDW>
-19.1936

>  <SCORE.INTER.norm>
-2.49772

>  <SCORE.INTRA>
1.09368

>  <SCORE.INTRA.DIHEDRAL>
0.908523

>  <SCORE.INTRA.DIHEDRAL.0>
0.846562

>  <SCORE.INTRA.POLAR>
0

>  <SCORE.INTRA.POLAR.0>
0

>  <SCORE.INTRA.REPUL>
0

>  <SCORE.INTRA.REPUL.0>
0

>  <SCORE.INTRA.SOLV>
0.219896

>  <SCORE.INTRA.SOLV.lig_0>
-10.6719

>  <SCORE.INTRA.VDW>
0.529469

>  <SCORE.INTRA.VDW.0>
0.369087

>  <SCORE.INTRA.norm>
0.109368

>  <SCORE.RESTR>
0

>  <SCORE.RESTR.CAVITY>
0

>  <SCORE.RESTR.norm>
0

>  <SCORE.SYSTEM>
-21.2126

>  <SCORE.SYSTEM.CONST>
0

>  <SCORE.SYSTEM.DIHEDRAL>
4.71513

>  <SCORE.SYSTEM.POLAR>
-3.04077

>  <SCORE.SYSTEM.SOLV>
-0.0404786

>  <SCORE.SYSTEM.VDW>
-5.56407

>  <SCORE.SYSTEM.norm>
-2.12126

>  <SCORE.heavy>
10

>  <SCORE.norm>
-4.50961

$$$$
P129960895
 OpenBabel12072022113D
libRbt.so/2013.1/901 2013/11/27
 11 11  0  0  0  0  0  0  0  0999 V2000
  -29.2042   15.5480  -16.1974 C   0  0  0  0  0  0  0  0  0  0  0  0
  -30.0696   16.7874  -15.9611 C   0  0  2  0  0  0  0  0  0  0  0  0
  -29.7771   17.9453  -16.9421 C   0  0  2  0  0  0  0  0  0  0  0  0
  -30.7746   19.0986  -16.9031 C   0  0  0  0  0  0  0  0  0  0  0  0
  -31.5697   18.9321  -18.1754 C   0  0  0  0  0  0  0  0  0  0  0  0
  -30.5540   18.3188  -19.1089 C   0  0  0  0  0  0  0  0  0  0  0  0
  -29.7599   17.4440  -18.2997 O   0  0  0  0  0  0  0  0  0  0  0  0
  -29.8707   17.2593  -14.5912 N   0  0  0  0  0  0  0  0  0  0  0  0
  -30.7849   18.0358  -13.9342 C   0  0  0  0  0  0  0  0  0  0  0  0
  -31.8120   18.4908  -14.4155 O   0  0  0  0  0  0  0  0  0  0  0  0
  -29.1124   16.8350  -14.0682 H   0  0  0  0  0  0  0  0  0  0  0  0
  2  8  1  0  0  0  0
  2  1  1  6  0  0  0
  3  4  1  0  0  0  0
  3  7  1  0  0  0  0
  3  2  1  1  0  0  0
  4  5  1  0  0  0  0
  5  6  1  0  0  0  0
  6  7  1  0  0  0  0
  8  9  1  0  0  0  0
  8 11  1  0  0  0  0
  9 10  2  0  0  0  0
M  END
>  <CHROM.0>
-60.04959578,-175.71790072,-63.63307362,-42.75564519,-177.45960490,-61.18462809
-66.83166283,-173.62500364,-169.19379464

>  <CHROM.1>
-157.64914592,169.72006354,-30.41455168,17.77277611,-16.44964326,-1.59724933
0.90296845,-1.38258949

>  <Name>
P129960895

>  <RI>
0

>  <Rbt.Current_Directory>
/home/fstefaniak/projects/zuza/docking/adenine/4TZX

>  <Rbt.Executable>
rbdock ($Id: //depot/dev/client3/rdock/2013.1/src/exe/rbdock.cxx#4 $)

>  <Rbt.Library>
libRbt.so (2013.1, Build901 2013/11/27)

>  <Rbt.Parameter_File>
/home/fstefaniak/progs/rDock//data/scripts/dock_solv.prm

>  <Rbt.Receptor>
4tzx.prm

>  <SCORE>
-45.0248

>  <SCORE.INTER>
-25.1551

>  <SCORE.INTER.CONST>
1

>  <SCORE.INTER.POLAR>
-1.85173

>  <SCORE.INTER.ROT>
2

>  <SCORE.INTER.SOLV>
10.7241

>  <SCORE.INTER.VDW>
-19.1057

>  <SCORE.INTER.norm>
-2.51551

>  <SCORE.INTRA>
1.30776

>  <SCORE.INTRA.DIHEDRAL>
1.03163

>  <SCORE.INTRA.DIHEDRAL.0>
0.846562

>  <SCORE.INTRA.POLAR>
0

>  <SCORE.INTRA.POLAR.0>
0

>  <SCORE.INTRA.REPUL>
0

>  <SCORE.INTRA.REPUL.0>
0

>  <SCORE.INTRA.SOLV>
0.213853

>  <SCORE.INTRA.SOLV.lig_0>
-10.6719

>  <SCORE.INTRA.VDW>
0.685016

>  <SCORE.INTRA.VDW.0>
0.369087

>  <SCORE.INTRA.norm>
0.130776

>  <SCORE.RESTR>
0

>  <SCORE.RESTR.CAVITY>
0

>  <SCORE.RESTR.norm>
0

>  <SCORE.SYSTEM>
-21.1774

>  <SCORE.SYSTEM.CONST>
0

>  <SCORE.SYSTEM.DIHEDRAL>
4.54877

>  <SCORE.SYSTEM.POLAR>
-3.05077

>  <SCORE.SYSTEM.SOLV>
-0.157128

>  <SCORE.SYSTEM.VDW>
-5.41293

>  <SCORE.SYSTEM.norm>
-2.11774

>  <SCORE.heavy>
10

>  <SCORE.norm>
-4.50248

$$$$
P129960895
 OpenBabel12072022113D
libRbt.so/2013.1/901 2013/11/27
 11 11  0  0  0  0  0  0  0  0999 V2000
  -29.1946   15.5396  -16.1973 C   0  0  0  0  0  0  0  0  0  0  0  0
  -30.0591   16.7787  -15.9561 C   0  0  2  0  0  0  0  0  0  0  0  0
  -29.7765   17.9347  -16.9424 C   0  0  2  0  0  0  0  0  0  0  0  0
  -30.7701   19.0908  -16.8913 C   0  0  0  0  0  0  0  0  0  0  0  0
  -31.5828   18.9251  -18.1526 C   0  0  0  0  0  0  0  0  0  0  0  0
  -30.5815   18.3078  -19.0989 C   0  0  0  0  0  0  0  0  0  0  0  0
  -29.7791   17.4317  -18.2995 O   0  0  0  0  0  0  0  0  0  0  0  0
  -29.8485   17.2539  -14.5892 N   0  0  0  0  0  0  0  0  0  0  0  0
  -30.7573   18.0315  -13.9260 C   0  0  0  0  0  0  0  0  0  0  0  0
  -31.7889   18.4847  -14.3993 O   0  0  0  0  0  0  0  0  0  0  0  0
  -29.0853   16.8314  -14.0718 H   0  0  0  0  0  0  0  0  0  0  0  0
  2  8  1  0  0  0  0
  2  1  1  6  0  0  0
  3  4  1  0  0  0  0
  3  7  1  0  0  0  0
  3  2  1  1  0  0  0
  4  5  1  0  0  0  0
  5  6  1  0  0  0  0
  6  7  1  0  0  0  0
  8  9  1  0  0  0  0
  8 11  1  0  0  0  0
  9 10  2  0  0  0  0
M  END
>  <CHROM.0>
-60.37063337,-174.75142739,-68.25871663,-43.02295610,-55.92928726,-63.55694101
-66.70394417,-60.71660896,-168.99468038

>  <CHROM.1>
-157.67314262,170.06707410,-30.41074986,17.76462907,-16.44210211,-1.57975769
0.90485758,-1.39666440

>  <Name>
P129960895

>  <RI>
0

>  <Rbt.Current_Directory>
/home/fstefaniak/projects/zuza/docking/adenine/4TZX

>  <Rbt.Executable>
rbdock ($Id: //depot/dev/client3/rdock/2013.1/src/exe/rbdock.cxx#4 $)

>  <Rbt.Library>
libRbt.so (2013.1, Build901 2013/11/27)

>  <Rbt.Parameter_File>
/home/fstefaniak/progs/rDock//data/scripts/dock_solv.prm

>  <Rbt.Receptor>
4tzx.prm

>  <SCORE>
-44.9507

>  <SCORE.INTER>
-25.1912

>  <SCORE.INTER.CONST>
1

>  <SCORE.INTER.POLAR>
-1.85463

>  <SCORE.INTER.ROT>
2

>  <SCORE.INTER.SOLV>
10.714

>  <SCORE.INTER.VDW>
-19.1168

>  <SCORE.INTER.norm>
-2.51912

>  <SCORE.INTRA>
1.31034

>  <SCORE.INTRA.DIHEDRAL>
1.00645

>  <SCORE.INTRA.DIHEDRAL.0>
0.846562

>  <SCORE.INTRA.POLAR>
0

>  <SCORE.INTRA.POLAR.0>
0

>  <SCORE.INTRA.REPUL>
0

>  <SCORE.INTRA.REPUL.0>
0

>  <SCORE.INTRA.SOLV>
0.216738

>  <SCORE.INTRA.SOLV.lig_0>
-10.6719

>  <SCORE.INTRA.VDW>
0.698745

>  <SCORE.INTRA.VDW.0>
0.369087

>  <SCORE.INTRA.norm>
0.131034

>  <SCORE.RESTR>
0

>  <SCORE.RESTR.CAVITY>
0

>  <SCORE.RESTR.norm>
0

>  <SCORE.SYSTEM>
-21.0697

>  <SCORE.SYSTEM.CONST>
0

>  <SCORE.SYSTEM.DIHEDRAL>
4.72944

>  <SCORE.SYSTEM.POLAR>
-3.05087

>  <SCORE.SYSTEM.SOLV>
0.148467

>  <SCORE.SYSTEM.VDW>
-5.5029

>  <SCORE.SYSTEM.norm>
-2.10697

>  <SCORE.heavy>
10

>  <SCORE.norm>
-4.49507

$$$$
P129962631
 OpenBabel12072022113D
libRbt.so/2013.1/901 2013/11/27
 10 10  0  0  0  0  0  0  0  0999 V2000
  -30.7147   18.4549  -19.3126 C   0  0  0  0  0  0  0  0  0  0  0  0
  -30.9213   19.4376  -18.1950 C   0  0  0  0  0  0  0  0  0  0  0  0
  -29.9405   18.3000  -18.0237 C   0  0  0  0  0  0  0  0  0  0  0  0
  -30.2394   17.1529  -17.0939 C   0  0  2  0  0  0  0  0  0  0  0  0
  -30.8718   17.8208  -15.8838 C   0  0  0  0  0  0  0  0  0  0  0  0
  -31.3965   18.3749  -14.8799 N   0  0  0  0  0  0  0  0  0  0  0  0
  -29.0033   16.4850  -16.7414 N   0  0  0  0  0  0  0  0  0  0  0  0
  -28.8399   15.8954  -15.5193 C   0  0  0  0  0  0  0  0  0  0  0  0
  -29.6564   15.9122  -14.6109 O   0  0  0  0  0  0  0  0  0  0  0  0
  -28.2948   16.3514  -17.4512 H   0  0  0  0  0  0  0  0  0  0  0  0
  1  2  1  0  0  0  0
  1  3  1  0  0  0  0
  2  3  1  0  0  0  0
  4  5  1  1  0  0  0
  4  7  1  0  0  0  0
  4  3  1  0  0  0  0
  5  6  3  0  0  0  0
  7  8  1  0  0  0  0
  7 10  1  0  0  0  0
  8  9  2  0  0  0  0
M  END
>  <CHROM.0>
-60.70618408,-61.16828892,-65.81012183,-43.32694661,-58.05056274,-66.05792023
-68.51907339,-60.44022392,-168.02598301

>  <CHROM.1>
148.06334100,-110.96908919,-30.15337686,17.50729578,-16.67761652,-1.95741277
-0.81919402,1.92298571

>  <Name>
P129962631

>  <RI>
0

>  <Rbt.Current_Directory>
/home/fstefaniak/projects/zuza/docking/adenine/4TZX

>  <Rbt.Executable>
rbdock ($Id: //depot/dev/client3/rdock/2013.1/src/exe/rbdock.cxx#4 $)

>  <Rbt.Library>
libRbt.so (2013.1, Build901 2013/11/27)

>  <Rbt.Parameter_File>
/home/fstefaniak/progs/rDock//data/scripts/dock_solv.prm

>  <Rbt.Receptor>
4tzx.prm

>  <SCORE>
-44.7612

>  <SCORE.INTER>
-25.8535

>  <SCORE.INTER.CONST>
1

>  <SCORE.INTER.POLAR>
-3.09623

>  <SCORE.INTER.ROT>
2

>  <SCORE.INTER.SOLV>
9.78285

>  <SCORE.INTER.VDW>
-15.1092

>  <SCORE.INTER.norm>
-2.87261

>  <SCORE.INTRA>
2.27935

>  <SCORE.INTRA.DIHEDRAL>
-1.06733

>  <SCORE.INTRA.DIHEDRAL.0>
3.74909

>  <SCORE.INTRA.POLAR>
0

>  <SCORE.INTRA.POLAR.0>
0

>  <SCORE.INTRA.REPUL>
0

>  <SCORE.INTRA.REPUL.0>
0

>  <SCORE.INTRA.SOLV>
0.379859

>  <SCORE.INTRA.SOLV.lig_0>
-12.3972

>  <SCORE.INTRA.VDW>
2.62309

>  <SCORE.INTRA.VDW.0>
-1.14106

>  <SCORE.INTRA.norm>
0.253261

>  <SCORE.RESTR>
0

>  <SCORE.RESTR.CAVITY>
0

>  <SCORE.RESTR.norm>
0

>  <SCORE.SYSTEM>
-21.187

>  <SCORE.SYSTEM.CONST>
0

>  <SCORE.SYSTEM.DIHEDRAL>
4.67547

>  <SCORE.SYSTEM.POLAR>
-3.04567

>  <SCORE.SYSTEM.SOLV>
0.168585

>  <SCORE.SYSTEM.VDW>
-5.58713

>  <SCORE.SYSTEM.norm>
-2.35411

>  <SCORE.heavy>
9

>  <SCORE.norm>
-4.97346

$$$$
P129962631
 OpenBabel12072022113D
libRbt.so/2013.1/901 2013/11/27
 10 10  0  0  0  0  0  0  0  0999 V2000
  -30.6985   18.4868  -19.3071 C   0  0  0  0  0  0  0  0  0  0  0  0
  -30.8826   19.4592  -18.1766 C   0  0  0  0  0  0  0  0  0  0  0  0
  -29.9233   18.3008  -18.0230 C   0  0  0  0  0  0  0  0  0  0  0  0
  -30.2413   17.1482  -17.1065 C   0  0  2  0  0  0  0  0  0  0  0  0
  -30.8767   17.8111  -15.8952 C   0  0  0  0  0  0  0  0  0  0  0  0
  -31.4038   18.3610  -14.8903 N   0  0  0  0  0  0  0  0  0  0  0  0
  -29.0150   16.4643  -16.7505 N   0  0  0  0  0  0  0  0  0  0  0  0
  -28.8596   15.8798  -15.5250 C   0  0  0  0  0  0  0  0  0  0  0  0
  -29.6753   15.9140  -14.6164 O   0  0  0  0  0  0  0  0  0  0  0  0
  -28.3088   16.3162  -17.4598 H   0  0  0  0  0  0  0  0  0  0  0  0
  1  2  1  0  0  0  0
  1  3  1  0  0  0  0
  2  3  1  0  0  0  0
  4  5  1  1  0  0  0
  4  7  1  0  0  0  0
  4  3  1  0  0  0  0
  5  6  3  0  0  0  0
  7  8  1  0  0  0  0
  7 10  1  0  0  0  0
  8  9  2  0  0  0  0
M  END
>  <CHROM.0>
-60.81742203,-63.19544139,-66.33135370,-43.53264381,-58.31215921,-60.88868627
-69.09109551,-173.18854321,-168.64719900

>  <CHROM.1>
147.02289944,-110.11752401,-30.15280694,17.50640020,-16.68083888,-1.94473789
-0.82352419,1.93920028

>  <Name>
P129962631

>  <RI>
0

>  <Rbt.Current_Directory>
/home/fstefaniak/projects/zuza/docking/adenine/4TZX

>  <Rbt.Executable>
rbdock ($Id: //depot/dev/client3/rdock/2013.1/src/exe/rbdock.cxx#4 $)

>  <Rbt.Library>
libRbt.so (2013.1, Build901 2013/11/27)

>  <Rbt.Parameter_File>
/home/fstefaniak/progs/rDock//data/scripts/dock_solv.prm

>  <Rbt.Receptor>
4tzx.prm

>  <SCORE>
-44.6931

>  <SCORE.INTER>
-25.948

>  <SCORE.INTER.CONST>
1

>  <SCORE.INTER.POLAR>
-3.10885

>  <SCORE.INTER.ROT>
2

>  <SCORE.INTER.SOLV>
9.79341

>  <SCORE.INTER.VDW>
-15.1336

>  <SCORE.INTER.norm>
-2.88311

>  <SCORE.INTRA>
2.41776

>  <SCORE.INTRA.DIHEDRAL>
-1.05286

>  <SCORE.INTRA.DIHEDRAL.0>
3.74909

>  <SCORE.INTRA.POLAR>
0

>  <SCORE.INTRA.POLAR.0>
0

>  <SCORE.INTRA.REPUL>
0

>  <SCORE.INTRA.REPUL.0>
0

>  <SCORE.INTRA.SOLV>
0.389736

>  <SCORE.INTRA.SOLV.lig_0>
-12.3972

>  <SCORE.INTRA.VDW>
2.74933

>  <SCORE.INTRA.VDW.0>
-1.14106

>  <SCORE.INTRA.norm>
0.268641

>  <SCORE.RESTR>
0

>  <SCORE.RESTR.CAVITY>
0

>  <SCORE.RESTR.norm>
0

>  <SCORE.SYSTEM>
-21.1629

>  <SCORE.SYSTEM.CONST>
0

>  <SCORE.SYSTEM.DIHEDRAL>
4.74154

>  <SCORE.SYSTEM.POLAR>
-3.04007

>  <SCORE.SYSTEM.SOLV>
0.0433498

>  <SCORE.SYSTEM.VDW>
-5.57001

>  <SCORE.SYSTEM.norm>
-2.35144

>  <SCORE.heavy>
9

>  <SCORE.norm>
-4.9659

$$$$
P129962631
 OpenBabel12072022113D
libRbt.so/2013.1/901 2013/11/27
 10 10  0  0  0  0  0  0  0  0999 V2000
  -30.7225   18.4437  -19.3085 C   0  0  0  0  0  0  0  0  0  0  0  0
  -30.8987   19.4379  -18.1958 C   0  0  0  0  0  0  0  0  0  0  0  0
  -29.9312   18.2879  -18.0301 C   0  0  0  0  0  0  0  0  0  0  0  0
  -30.2321   17.1524  -17.0868 C   0  0  2  0  0  0  0  0  0  0  0  0
  -30.8519   17.8369  -15.8794 C   0  0  0  0  0  0  0  0  0  0  0  0
  -31.3660   18.4047  -14.8778 N   0  0  0  0  0  0  0  0  0  0  0  0
  -28.9985   16.4793  -16.7356 N   0  0  0  0  0  0  0  0  0  0  0  0
  -28.8325   15.8979  -15.5099 C   0  0  0  0  0  0  0  0  0  0  0  0
  -29.6441   15.9268  -14.5975 O   0  0  0  0  0  0  0  0  0  0  0  0
  -28.2945   16.3359  -17.4480 H   0  0  0  0  0  0  0  0  0  0  0  0
  1  2  1  0  0  0  0
  1  3  1  0  0  0  0
  2  3  1  0  0  0  0
  4  5  1  1  0  0  0
  4  7  1  0  0  0  0
  4  3  1  0  0  0  0
  5  6  3  0  0  0  0
  7  8  1  0  0  0  0
  7 10  1  0  0  0  0
  8  9  2  0  0  0  0
M  END
>  <CHROM.0>
-58.86082758,-61.39715998,-64.70692982,-43.44066965,-57.07199505,-58.80448260
-65.57192851,-57.65125105,-169.24632383

>  <CHROM.1>
148.23200114,-110.33385380,-30.14168967,17.51105210,-16.67311021,-1.96455195
-0.82917796,1.91102266

>  <Name>
P129962631

>  <RI>
0

>  <Rbt.Current_Directory>
/home/fstefaniak/projects/zuza/docking/adenine/4TZX

>  <Rbt.Executable>
rbdock ($Id: //depot/dev/client3/rdock/2013.1/src/exe/rbdock.cxx#4 $)

>  <Rbt.Library>
libRbt.so (2013.1, Build901 2013/11/27)

>  <Rbt.Parameter_File>
/home/fstefaniak/progs/rDock//data/scripts/dock_solv.prm

>  <Rbt.Receptor>
4tzx.prm

>  <SCORE>
-44.6726

>  <SCORE.INTER>
-25.887

>  <SCORE.INTER.CONST>
1

>  <SCORE.INTER.POLAR>
-3.10313

>  <SCORE.INTER.ROT>
2

>  <SCORE.INTER.SOLV>
9.77615

>  <SCORE.INTER.VDW>
-15.1063

>  <SCORE.INTER.norm>
-2.87633

>  <SCORE.INTRA>
2.30229

>  <SCORE.INTRA.DIHEDRAL>
-1.06041

>  <SCORE.INTRA.DIHEDRAL.0>
3.74909

>  <SCORE.INTRA.POLAR>
0

>  <SCORE.INTRA.POLAR.0>
0

>  <SCORE.INTRA.REPUL>
0

>  <SCORE.INTRA.REPUL.0>
0

>  <SCORE.INTRA.SOLV>
0.379953

>  <SCORE.INTRA.SOLV.lig_0>
-12.3972

>  <SCORE.INTRA.VDW>
2.64252

>  <SCORE.INTRA.VDW.0>
-1.14106

>  <SCORE.INTRA.norm>
0.25581

>  <SCORE.RESTR>
0

>  <SCORE.RESTR.CAVITY>
0

>  <SCORE.RESTR.norm>
0

>  <SCORE.SYSTEM>
-21.0879

>  <SCORE.SYSTEM.CONST>
0

>  <SCORE.SYSTEM.DIHEDRAL>
4.1966

>  <SCORE.SYSTEM.POLAR>
-3.05529

>  <SCORE.SYSTEM.SOLV>
0.20267

>  <SCORE.SYSTEM.VDW>
-5.34071

>  <SCORE.SYSTEM.norm>
-2.3431

>  <SCORE.heavy>
9

>  <SCORE.norm>
-4.96362

$$$$
P129973817
 OpenBabel12072022113D
libRbt.so/2013.1/901 2013/11/27
 12 11  0  0  0  0  0  0  0  0999 V2000
  -31.5054   17.9774  -13.9972 C   0  0  0  0  0  0  0  0  0  0  0  0
  -30.8946   18.0016  -15.3914 C   0  0  1  0  0  0  0  0  0  0  0  0
  -30.0772   16.7309  -15.6234 C   0  0  0  0  0  0  0  0  0  0  0  0
  -30.0945   15.7882  -14.8274 O   0  0  0  0  0  0  0  0  0  0  0  0
  -29.2251   16.6923  -16.8646 C   0  0  0  0  0  0  0  0  0  0  0  0
  -31.9143   18.0583  -16.4265 N   0  0  0  0  0  0  0  0  0  0  0  0
  -31.7888   18.8616  -17.5130 C   0  0  0  0  0  0  0  0  0  0  0  0
  -30.8490   19.6099  -17.7330 O   0  0  0  0  0  0  0  0  0  0  0  0
  -32.8327   18.7467  -18.3684 N   0  0  0  0  0  0  0  0  0  0  0  0
  -32.8428   17.7454  -16.1703 H   0  0  0  0  0  0  0  0  0  0  0  0
  -32.9564   17.8552  -18.8252 H   0  0  0  0  0  0  0  0  0  0  0  0
  -32.9550   19.5548  -18.9656 H   0  0  0  0  0  0  0  0  0  0  0  0
  2  1  1  1  0  0  0
  2  3  1  0  0  0  0
  2  6  1  0  0  0  0
  3  4  2  0  0  0  0
  3  5  1  0  0  0  0
  6  7  1  0  0  0  0
  6 10  1  0  0  0  0
  7  8  2  0  0  0  0
  7  9  1  0  0  0  0
  9 11  1  0  0  0  0
  9 12  1  0  0  0  0
M  END
>  <CHROM.0>
-60.09242334,-64.15374806,-63.37902217,-43.15014971,-175.99960603,-66.36275911
-68.45258057,-58.53623214,-168.75762350

>  <CHROM.1>
8.48130587,137.76472514,-0.72589829,-65.06519510,-31.04075730,17.83046687
-16.32835619,0.99417672,-0.66222599,1.89213873

>  <Name>
P129973817

>  <RI>
0

>  <Rbt.Current_Directory>
/home/fstefaniak/projects/zuza/docking/adenine/4TZX

>  <Rbt.Executable>
rbdock ($Id: //depot/dev/client3/rdock/2013.1/src/exe/rbdock.cxx#4 $)

>  <Rbt.Library>
libRbt.so (2013.1, Build901 2013/11/27)

>  <Rbt.Parameter_File>
/home/fstefaniak/progs/rDock//data/scripts/dock_solv.prm

>  <Rbt.Receptor>
4tzx.prm

>  <SCORE>
-53.0848

>  <SCORE.INTER>
-33.2305

>  <SCORE.INTER.CONST>
1

>  <SCORE.INTER.POLAR>
-5.16079

>  <SCORE.INTER.ROT>
4

>  <SCORE.INTER.SOLV>
13.186

>  <SCORE.INTER.VDW>
-15.613

>  <SCORE.INTER.norm>
-3.69228

>  <SCORE.INTRA>
1.46899

>  <SCORE.INTRA.DIHEDRAL>
0.389111

>  <SCORE.INTRA.DIHEDRAL.0>
3.27417

>  <SCORE.INTRA.POLAR>
0

>  <SCORE.INTRA.POLAR.0>
0

>  <SCORE.INTRA.REPUL>
0

>  <SCORE.INTRA.REPUL.0>
0

>  <SCORE.INTRA.SOLV>
0.179016

>  <SCORE.INTRA.SOLV.lig_0>
-16.0052

>  <SCORE.INTRA.VDW>
1.18493

>  <SCORE.INTRA.VDW.0>
-0.310316

>  <SCORE.INTRA.norm>
0.163221

>  <SCORE.RESTR>
0

>  <SCORE.RESTR.CAVITY>
0

>  <SCORE.RESTR.norm>
0

>  <SCORE.SYSTEM>
-21.3233

>  <SCORE.SYSTEM.CONST>
0

>  <SCORE.SYSTEM.DIHEDRAL>
4.67736

>  <SCORE.SYSTEM.POLAR>
-3.0526

>  <SCORE.SYSTEM.SOLV>
-0.0120857

>  <SCORE.SYSTEM.VDW>
-5.59527

>  <SCORE.SYSTEM.norm>
-2.36925

>  <SCORE.heavy>
9

>  <SCORE.norm>
-5.89831

$$$$
P129973817
 OpenBabel12072022113D
libRbt.so/2013.1/901 2013/11/27
 12 11  0  0  0  0  0  0  0  0999 V2000
  -31.4904   17.9488  -13.9450 C   0  0  0  0  0  0  0  0  0  0  0  0
  -30.8772   18.0027  -15.3373 C   0  0  1  0  0  0  0  0  0  0  0  0
  -30.0486   16.7431  -15.5898 C   0  0  0  0  0  0  0  0  0  0  0  0
  -29.9170   15.8647  -14.7332 O   0  0  0  0  0  0  0  0  0  0  0  0
  -29.3756   16.6346  -16.9328 C   0  0  0  0  0  0  0  0  0  0  0  0
  -31.8954   18.0688  -16.3733 N   0  0  0  0  0  0  0  0  0  0  0  0
  -31.7781   18.8972  -17.4417 C   0  0  0  0  0  0  0  0  0  0  0  0
  -30.8580   19.6773  -17.6325 O   0  0  0  0  0  0  0  0  0  0  0  0
  -32.8055   18.7689  -18.3149 N   0  0  0  0  0  0  0  0  0  0  0  0
  -32.8202   17.7383  -16.1263 H   0  0  0  0  0  0  0  0  0  0  0  0
  -32.9110   17.8751  -18.7720 H   0  0  0  0  0  0  0  0  0  0  0  0
  -32.9264   19.5743  -18.9160 H   0  0  0  0  0  0  0  0  0  0  0  0
  2  1  1  1  0  0  0
  2  3  1  0  0  0  0
  2  6  1  0  0  0  0
  3  4  2  0  0  0  0
  3  5  1  0  0  0  0
  6  7  1  0  0  0  0
  6 10  1  0  0  0  0
  7  8  2  0  0  0  0
  7  9  1  0  0  0  0
  9 11  1  0  0  0  0
  9 12  1  0  0  0  0
M  END
>  <CHROM.0>
-59.60446012,-61.89559264,-63.67437854,-41.59870597,-177.66551629,-60.04661511
-68.05067839,-59.62817837,-169.02179499

>  <CHROM.1>
-1.37292350,137.40354693,-1.93361690,-63.41275481,-31.02461572,17.84648457
-16.27857688,0.96067025,-0.71117043,1.84730492

>  <Name>
P129973817

>  <RI>
0

>  <Rbt.Current_Directory>
/home/fstefaniak/projects/zuza/docking/adenine/4TZX

>  <Rbt.Executable>
rbdock ($Id: //depot/dev/client3/rdock/2013.1/src/exe/rbdock.cxx#4 $)

>  <Rbt.Library>
libRbt.so (2013.1, Build901 2013/11/27)

>  <Rbt.Parameter_File>
/home/fstefaniak/progs/rDock//data/scripts/dock_solv.prm

>  <Rbt.Receptor>
4tzx.prm

>  <SCORE>
-53.0418

>  <SCORE.INTER>
-33.4551

>  <SCORE.INTER.CONST>
1

>  <SCORE.INTER.POLAR>
-5.11744

>  <SCORE.INTER.ROT>
4

>  <SCORE.INTER.SOLV>
13.1955

>  <SCORE.INTER.VDW>
-15.9104

>  <SCORE.INTER.norm>
-3.71723

>  <SCORE.INTRA>
1.69231

>  <SCORE.INTRA.DIHEDRAL>
0.301928

>  <SCORE.INTRA.DIHEDRAL.0>
3.27417

>  <SCORE.INTRA.POLAR>
0

>  <SCORE.INTRA.POLAR.0>
0

>  <SCORE.INTRA.REPUL>
0

>  <SCORE.INTRA.REPUL.0>
0

>  <SCORE.INTRA.SOLV>
0.206084

>  <SCORE.INTRA.SOLV.lig_0>
-16.0052

>  <SCORE.INTRA.VDW>
1.4383

>  <SCORE.INTRA.VDW.0>
-0.310316

>  <SCORE.INTRA.norm>
0.188034

>  <SCORE.RESTR>
0

>  <SCORE.RESTR.CAVITY>
0

>  <SCORE.RESTR.norm>
0

>  <SCORE.SYSTEM>
-21.2791

>  <SCORE.SYSTEM.CONST>
0

>  <SCORE.SYSTEM.DIHEDRAL>
4.55454

>  <SCORE.SYSTEM.POLAR>
-3.07253

>  <SCORE.SYSTEM.SOLV>
0.0068238

>  <SCORE.SYSTEM.VDW>
-5.46474

>  <SCORE.SYSTEM.norm>
-2.36434

>  <SCORE.heavy>
9

>  <SCORE.norm>
-5.89353

$$$$
P129973817
 OpenBabel12072022113D
libRbt.so/2013.1/901 2013/11/27
 12 11  0  0  0  0  0  0  0  0999 V2000
  -31.4761   17.9681  -13.9713 C   0  0  0  0  0  0  0  0  0  0  0  0
  -30.8681   17.9944  -15.3667 C   0  0  1  0  0  0  0  0  0  0  0  0
  -30.0539   16.7224  -15.6034 C   0  0  0  0  0  0  0  0  0  0  0  0
  -30.0284   15.8007  -14.7834 O   0  0  0  0  0  0  0  0  0  0  0  0
  -29.2594   16.6562  -16.8812 C   0  0  0  0  0  0  0  0  0  0  0  0
  -31.8898   18.0557  -16.3996 N   0  0  0  0  0  0  0  0  0  0  0  0
  -31.7826   18.8890  -17.4653 C   0  0  0  0  0  0  0  0  0  0  0  0
  -30.8679   19.6749  -17.6576 O   0  0  0  0  0  0  0  0  0  0  0  0
  -32.8138   18.7583  -18.3337 N   0  0  0  0  0  0  0  0  0  0  0  0
  -32.8111   17.7164  -16.1511 H   0  0  0  0  0  0  0  0  0  0  0  0
  -32.9306   17.8586  -18.7761 H   0  0  0  0  0  0  0  0  0  0  0  0
  -32.9273   19.5554  -18.9472 H   0  0  0  0  0  0  0  0  0  0  0  0
  2  1  1  1  0  0  0
  2  3  1  0  0  0  0
  2  6  1  0  0  0  0
  3  4  2  0  0  0  0
  3  5  1  0  0  0  0
  6  7  1  0  0  0  0
  6 10  1  0  0  0  0
  7  8  2  0  0  0  0
  7  9  1  0  0  0  0
  9 11  1  0  0  0  0
  9 12  1  0  0  0  0
M  END
>  <CHROM.0>
-57.69360378,-68.03115103,-63.03641683,-43.58230453,-174.93296011,-60.09592661
-68.34993457,-172.69139894,-169.31444555

>  <CHROM.1>
5.45329681,135.86623072,-1.72303238,-61.91124904,-31.02484092,17.83653523
-16.29659022,0.97015013,-0.69499730,1.87242479

>  <Name>
P129973817

>  <RI>
0

>  <Rbt.Current_Directory>
/home/fstefaniak/projects/zuza/docking/adenine/4TZX

>  <Rbt.Executable>
rbdock ($Id: //depot/dev/client3/rdock/2013.1/src/exe/rbdock.cxx#4 $)

>  <Rbt.Library>
libRbt.so (2013.1, Build901 2013/11/27)

>  <Rbt.Parameter_File>
/home/fstefaniak/progs/rDock//data/scripts/dock_solv.prm

>  <Rbt.Receptor>
4tzx.prm

>  <SCORE>
-53.0205

>  <SCORE.INTER>
-33.3777

>  <SCORE.INTER.CONST>
1

>  <SCORE.INTER.POLAR>
-5.14693

>  <SCORE.INTER.ROT>
4

>  <SCORE.INTER.SOLV>
13.2315

>  <SCORE.INTER.VDW>
-15.7726

>  <SCORE.INTER.norm>
-3.70864

>  <SCORE.INTRA>
1.48717

>  <SCORE.INTRA.DIHEDRAL>
0.330564

>  <SCORE.INTRA.DIHEDRAL.0>
3.27417

>  <SCORE.INTRA.POLAR>
0

>  <SCORE.INTRA.POLAR.0>
0

>  <SCORE.INTRA.REPUL>
0

>  <SCORE.INTRA.REPUL.0>
0

>  <SCORE.INTRA.SOLV>
0.17525

>  <SCORE.INTRA.SOLV.lig_0>
-16.0052

>  <SCORE.INTRA.VDW>
1.23427

>  <SCORE.INTRA.VDW.0>
-0.310316

>  <SCORE.INTRA.norm>
0.165242

>  <SCORE.RESTR>
0

>  <SCORE.RESTR.CAVITY>
0

>  <SCORE.RESTR.norm>
0

>  <SCORE.SYSTEM>
-21.1299

>  <SCORE.SYSTEM.CONST>
0

>  <SCORE.SYSTEM.DIHEDRAL>
4.88488

>  <SCORE.SYSTEM.POLAR>
-3.05023

>  <SCORE.SYSTEM.SOLV>
-0.132127

>  <SCORE.SYSTEM.VDW>
-5.50344

>  <SCORE.SYSTEM.norm>
-2.34777

>  <SCORE.heavy>
9

>  <SCORE.norm>
-5.89117

$$$$
P130426551
 OpenBabel12072022113D
libRbt.so/2013.1/901 2013/11/27
 15 16  0  0  0  0  0  0  0  0999 V2000
  -26.9515   11.4674  -14.7825 C   0  0  0  0  0  0  0  0  0  0  0  0
  -25.5505   11.3185  -15.3903 C   0  0  2  0  0  0  0  0  0  0  0  0
  -24.6373   10.5474  -14.4229 C   0  0  0  0  0  0  0  0  0  0  0  0
  -23.8914   11.6016  -13.6010 C   0  0  0  0  0  0  0  0  0  0  0  0
  -24.2476   12.9618  -14.2024 C   0  0  0  0  0  0  0  0  0  0  0  0
  -24.8082   12.6563  -15.5930 C   0  0  2  0  0  0  0  0  0  0  0  0
  -25.6168   13.7338  -16.2337 C   0  0  0  0  0  0  0  0  0  0  0  0
  -25.9180   14.8153  -15.4761 N   0  0  0  0  0  0  0  0  0  0  0  0
  -27.0355   15.3039  -16.0496 N   0  5  0  0  0  0  0  0  0  0  0  0
  -27.3800   14.5251  -17.0991 N   0  0  0  0  0  0  0  0  0  0  0  0
  -26.5089   13.4987  -17.2086 N   0  0  0  0  0  0  0  0  0  0  0  0
  -23.6268   12.4180  -16.5273 N   0  3  0  0  0  0  0  0  0  0  0  0
  -24.0517   12.3767  -17.4734 H   0  0  0  0  0  0  0  0  0  0  0  0
  -23.0771   13.2875  -16.5590 H   0  0  0  0  0  0  0  0  0  0  0  0
  -23.0488   11.6021  -16.3424 H   0  0  0  0  0  0  0  0  0  0  0  0
  2  3  1  0  0  0  0
  2  6  1  0  0  0  0
  2  1  1  1  0  0  0
  3  4  1  0  0  0  0
  4  5  1  0  0  0  0
  5  6  1  0  0  0  0
  6 12  1  6  0  0  0
  6  7  1  0  0  0  0
  7  8  2  0  0  0  0
  7 11  1  0  0  0  0
  8  9  1  0  0  0  0
  9 10  1  0  0  0  0
 10 11  2  0  0  0  0
 12 13  1  0  0  0  0
 12 14  1  0  0  0  0
 12 15  1  0  0  0  0
M  CHG  2   9  -1  12   1
M  END
>  <CHROM.0>
-59.49002333,50.86820622,-64.63890694,-43.11447341,-58.87664916,-62.27149348
-68.83204447,-59.21901755,-169.08987051

>  <CHROM.1>
78.04229699,113.29700776,-25.49136971,12.88842545,-15.55834575,1.00368013
0.11744294,2.64551230

>  <Name>
P130426551

>  <RI>
0

>  <Rbt.Current_Directory>
/home/fstefaniak/projects/zuza/docking/adenine/4TZX

>  <Rbt.Executable>
rbdock ($Id: //depot/dev/client3/rdock/2013.1/src/exe/rbdock.cxx#4 $)

>  <Rbt.Library>
libRbt.so (2013.1, Build901 2013/11/27)

>  <Rbt.Parameter_File>
/home/fstefaniak/progs/rDock//data/scripts/dock_solv.prm

>  <Rbt.Receptor>
4tzx.prm

>  <SCORE>
-38.3092

>  <SCORE.INTER>
-18.6475

>  <SCORE.INTER.CONST>
1

>  <SCORE.INTER.POLAR>
-2.84766

>  <SCORE.INTER.ROT>
1

>  <SCORE.INTER.SOLV>
10.2608

>  <SCORE.INTER.VDW>
-10.6264

>  <SCORE.INTER.norm>
-1.55396

>  <SCORE.INTRA>
0.58007

>  <SCORE.INTRA.DIHEDRAL>
0.118265

>  <SCORE.INTRA.DIHEDRAL.0>
0.964793

>  <SCORE.INTRA.POLAR>
0.19666

>  <SCORE.INTRA.POLAR.0>
-0.19666

>  <SCORE.INTRA.REPUL>
0

>  <SCORE.INTRA.REPUL.0>
0

>  <SCORE.INTRA.SOLV>
-0.961395

>  <SCORE.INTRA.SOLV.lig_0>
-25.1069

>  <SCORE.INTRA.VDW>
0.332992

>  <SCORE.INTRA.VDW.0>
-0.980818

>  <SCORE.INTRA.norm>
0.0483392

>  <SCORE.RESTR>
0.137622

>  <SCORE.RESTR.CAVITY>
0.137622

>  <SCORE.RESTR.norm>
0.0114685

>  <SCORE.SYSTEM>
-20.3794

>  <SCORE.SYSTEM.CONST>
0

>  <SCORE.SYSTEM.DIHEDRAL>
4.80589

>  <SCORE.SYSTEM.POLAR>
-3.08525

>  <SCORE.SYSTEM.SOLV>
0.277053

>  <SCORE.SYSTEM.VDW>
-4.99641

>  <SCORE.SYSTEM.norm>
-1.69828

>  <SCORE.heavy>
12

>  <SCORE.norm>
-3.19243

$$$$
P130426551
 OpenBabel12072022113D
libRbt.so/2013.1/901 2013/11/27
 15 16  0  0  0  0  0  0  0  0999 V2000
  -27.0624   11.9550  -14.4592 C   0  0  0  0  0  0  0  0  0  0  0  0
  -26.8852   12.0474  -15.9805 C   0  0  2  0  0  0  0  0  0  0  0  0
  -25.5267   11.4536  -16.3884 C   0  0  0  0  0  0  0  0  0  0  0  0
  -24.5464   12.6271  -16.4583 C   0  0  0  0  0  0  0  0  0  0  0  0
  -25.3687   13.9005  -16.2558 C   0  0  0  0  0  0  0  0  0  0  0  0
  -26.8199   13.4924  -16.5188 C   0  0  2  0  0  0  0  0  0  0  0  0
  -27.8726   14.4084  -15.9915 C   0  0  0  0  0  0  0  0  0  0  0  0
  -29.1565   14.1312  -16.3218 N   0  0  0  0  0  0  0  0  0  0  0  0
  -29.7754   15.3241  -16.2209 N   0  5  0  0  0  0  0  0  0  0  0  0
  -28.8784   16.2668  -15.8557 N   0  0  0  0  0  0  0  0  0  0  0  0
  -27.6537   15.7088  -15.7415 N   0  0  0  0  0  0  0  0  0  0  0  0
  -27.0250   13.4563  -18.0294 N   0  3  0  0  0  0  0  0  0  0  0  0
  -26.3291   12.7640  -18.3667 H   0  0  0  0  0  0  0  0  0  0  0  0
  -27.9231   12.9867  -18.2086 H   0  0  0  0  0  0  0  0  0  0  0  0
  -26.9443   14.3390  -18.5278 H   0  0  0  0  0  0  0  0  0  0  0  0
  2  3  1  0  0  0  0
  2  6  1  0  0  0  0
  2  1  1  1  0  0  0
  3  4  1  0  0  0  0
  4  5  1  0  0  0  0
  5  6  1  0  0  0  0
  6 12  1  6  0  0  0
  6  7  1  0  0  0  0
  7  8  2  0  0  0  0
  7 11  1  0  0  0  0
  8  9  1  0  0  0  0
  9 10  1  0  0  0  0
 10 11  2  0  0  0  0
 12 13  1  0  0  0  0
 12 14  1  0  0  0  0
 12 15  1  0  0  0  0
M  CHG  2   9  -1  12   1
M  END
>  <CHROM.0>
-56.19709180,-175.50120871,-71.88880429,-43.25193598,-174.33098942,-62.31017605
-168.70748587,-58.36680748,-168.93377293

>  <CHROM.1>
-52.33581444,-65.10040861,-27.20866386,13.71773031,-16.21361429,0.63811461
-0.45784795,2.64688862

>  <Name>
P130426551

>  <RI>
0

>  <Rbt.Current_Directory>
/home/fstefaniak/projects/zuza/docking/adenine/4TZX

>  <Rbt.Executable>
rbdock ($Id: //depot/dev/client3/rdock/2013.1/src/exe/rbdock.cxx#4 $)

>  <Rbt.Library>
libRbt.so (2013.1, Build901 2013/11/27)

>  <Rbt.Parameter_File>
/home/fstefaniak/progs/rDock//data/scripts/dock_solv.prm

>  <Rbt.Receptor>
4tzx.prm

>  <SCORE>
-37.4695

>  <SCORE.INTER>
-17.8878

>  <SCORE.INTER.CONST>
1

>  <SCORE.INTER.POLAR>
-2.45354

>  <SCORE.INTER.ROT>
1

>  <SCORE.INTER.SOLV>
14.6966

>  <SCORE.INTER.VDW>
-12.9123

>  <SCORE.INTER.norm>
-1.49065

>  <SCORE.INTRA>
0.987105

>  <SCORE.INTRA.DIHEDRAL>
-0.217568

>  <SCORE.INTRA.DIHEDRAL.0>
0.964793

>  <SCORE.INTRA.POLAR>
0.19666

>  <SCORE.INTRA.POLAR.0>
-0.19666

>  <SCORE.INTRA.REPUL>
0

>  <SCORE.INTRA.REPUL.0>
0

>  <SCORE.INTRA.SOLV>
-0.175713

>  <SCORE.INTRA.SOLV.lig_0>
-25.1069

>  <SCORE.INTRA.VDW>
0.515102

>  <SCORE.INTRA.VDW.0>
-0.980818

>  <SCORE.INTRA.norm>
0.0822588

>  <SCORE.RESTR>
0

>  <SCORE.RESTR.CAVITY>
0

>  <SCORE.RESTR.norm>
0

>  <SCORE.SYSTEM>
-20.5687

>  <SCORE.SYSTEM.CONST>
0

>  <SCORE.SYSTEM.DIHEDRAL>
5.45995

>  <SCORE.SYSTEM.POLAR>
-3.05901

>  <SCORE.SYSTEM.SOLV>
-0.0499874

>  <SCORE.SYSTEM.VDW>
-5.3191

>  <SCORE.SYSTEM.norm>
-1.71406

>  <SCORE.heavy>
12

>  <SCORE.norm>
-3.12245

$$$$
P130426551
 OpenBabel12072022113D
libRbt.so/2013.1/901 2013/11/27
 15 16  0  0  0  0  0  0  0  0999 V2000
  -26.9812   12.0308  -14.4160 C   0  0  0  0  0  0  0  0  0  0  0  0
  -26.8390   12.0334  -15.9438 C   0  0  2  0  0  0  0  0  0  0  0  0
  -25.4961   11.4028  -16.3477 C   0  0  0  0  0  0  0  0  0  0  0  0
  -24.5069   12.5599  -16.5078 C   0  0  0  0  0  0  0  0  0  0  0  0
  -25.3124   13.8514  -16.3606 C   0  0  0  0  0  0  0  0  0  0  0  0
  -26.7731   13.4442  -16.5662 C   0  0  2  0  0  0  0  0  0  0  0  0
  -27.8046   14.4002  -16.0688 C   0  0  0  0  0  0  0  0  0  0  0  0
  -29.0808   14.2012  -16.4764 N   0  0  0  0  0  0  0  0  0  0  0  0
  -29.6417   15.4223  -16.3726 N   0  5  0  0  0  0  0  0  0  0  0  0
  -28.7187   16.3052  -15.9307 N   0  0  0  0  0  0  0  0  0  0  0  0
  -27.5328   15.6796  -15.7675 N   0  0  0  0  0  0  0  0  0  0  0  0
  -27.0140   13.3232  -18.0670 N   0  3  0  0  0  0  0  0  0  0  0  0
  -28.0304   13.1289  -18.1492 H   0  0  0  0  0  0  0  0  0  0  0  0
  -26.9259   14.2655  -18.4715 H   0  0  0  0  0  0  0  0  0  0  0  0
  -26.4610   12.6337  -18.5697 H   0  0  0  0  0  0  0  0  0  0  0  0
  2  3  1  0  0  0  0
  2  6  1  0  0  0  0
  2  1  1  1  0  0  0
  3  4  1  0  0  0  0
  4  5  1  0  0  0  0
  5  6  1  0  0  0  0
  6 12  1  6  0  0  0
  6  7  1  0  0  0  0
  7  8  2  0  0  0  0
  7 11  1  0  0  0  0
  8  9  1  0  0  0  0
  9 10  1  0  0  0  0
 10 11  2  0  0  0  0
 12 13  1  0  0  0  0
 12 14  1  0  0  0  0
 12 15  1  0  0  0  0
M  CHG  2   9  -1  12   1
M  END
>  <CHROM.0>
-60.25363321,-176.06871386,-71.92639711,-43.64409381,-57.95849686,-178.14458435
-172.96907871,-60.78619896,-169.54937209

>  <CHROM.1>
73.58095545,-72.24000208,-27.13829868,13.70870516,-16.26315060,0.62316447
-0.52519961,2.53997574

>  <Name>
P130426551

>  <RI>
0

>  <Rbt.Current_Directory>
/home/fstefaniak/projects/zuza/docking/adenine/4TZX

>  <Rbt.Executable>
rbdock ($Id: //depot/dev/client3/rdock/2013.1/src/exe/rbdock.cxx#4 $)

>  <Rbt.Library>
libRbt.so (2013.1, Build901 2013/11/27)

>  <Rbt.Parameter_File>
/home/fstefaniak/progs/rDock//data/scripts/dock_solv.prm

>  <Rbt.Receptor>
4tzx.prm

>  <SCORE>
-37.119

>  <SCORE.INTER>
-16.9217

>  <SCORE.INTER.CONST>
1

>  <SCORE.INTER.POLAR>
-2.30979

>  <SCORE.INTER.ROT>
1

>  <SCORE.INTER.SOLV>
14.3126

>  <SCORE.INTER.VDW>
-12.6193

>  <SCORE.INTER.norm>
-1.41014

>  <SCORE.INTRA>
0.0717384

>  <SCORE.INTRA.DIHEDRAL>
-0.110182

>  <SCORE.INTRA.DIHEDRAL.0>
0.964793

>  <SCORE.INTRA.POLAR>
0.0524092

>  <SCORE.INTRA.POLAR.0>
-0.19666

>  <SCORE.INTRA.REPUL>
0

>  <SCORE.INTRA.REPUL.0>
0

>  <SCORE.INTRA.SOLV>
-0.00234286

>  <SCORE.INTRA.SOLV.lig_0>
-25.1069

>  <SCORE.INTRA.VDW>
-0.0501904

>  <SCORE.INTRA.VDW.0>
-0.980818

>  <SCORE.INTRA.norm>
0.0059782

>  <SCORE.RESTR>
0

>  <SCORE.RESTR.CAVITY>
0

>  <SCORE.RESTR.norm>
0

>  <SCORE.SYSTEM>
-20.2691

>  <SCORE.SYSTEM.CONST>
0

>  <SCORE.SYSTEM.DIHEDRAL>
4.77774

>  <SCORE.SYSTEM.POLAR>
-3.00822

>  <SCORE.SYSTEM.SOLV>
0.0075847

>  <SCORE.SYSTEM.VDW>
-5.08044

>  <SCORE.SYSTEM.norm>
-1.68909

>  <SCORE.heavy>
12

>  <SCORE.norm>
-3.09325

$$$$
P130489237
 OpenBabel12072022113D
libRbt.so/2013.1/901 2013/11/27
 16 16  0  0  0  0  0  0  0  0999 V2000
  -29.7500   16.9213  -16.8366 C   0  0  0  0  0  0  0  0  0  0  0  0
  -28.4628   16.7267  -16.0404 C   0  0  0  0  0  0  0  0  0  0  0  0
  -27.6588   15.5627  -16.4728 N   0  0  0  0  0  0  0  0  0  0  0  0
  -26.2383   15.7481  -16.1408 C   0  0  0  0  0  0  0  0  0  0  0  0
  -25.2895   14.6178  -16.5594 C   0  0  0  0  0  0  0  0  0  0  0  0
  -25.4077   13.3729  -15.6838 C   0  0  0  0  0  0  0  0  0  0  0  0
  -26.5353   12.4143  -16.0897 C   0  0  2  0  0  0  0  0  0  0  0  0
  -27.7916   13.0836  -16.6554 C   0  0  0  0  0  0  0  0  0  0  0  0
  -28.2419   14.3351  -15.9028 C   0  0  0  0  0  0  0  0  0  0  0  0
  -26.8923   11.5269  -14.8689 C   0  0  0  0  0  0  0  0  0  0  0  0
  -28.0252   11.1586  -14.5798 O   0  0  0  0  0  0  0  0  0  0  0  0
  -25.8237   11.1872  -14.0839 N   0  0  0  0  0  0  0  0  0  0  0  0
  -26.0054   11.5308  -17.1024 O   0  0  0  0  0  0  0  0  0  0  0  0
  -25.7623   11.5731  -13.1482 H   0  0  0  0  0  0  0  0  0  0  0  0
  -24.9773   10.8825  -14.5448 H   0  0  0  0  0  0  0  0  0  0  0  0
  -25.7041   12.0922  -17.8394 H   0  0  0  0  0  0  0  0  0  0  0  0
  1  2  1  0  0  0  0
  2  3  1  0  0  0  0
  3  4  1  0  0  0  0
  3  9  1  0  0  0  0
  4  5  1  0  0  0  0
  5  6  1  0  0  0  0
  6  7  1  0  0  0  0
  7  8  1  0  0  0  0
  7 10  1  1  0  0  0
  7 13  1  0  0  0  0
  8  9  1  0  0  0  0
 10 11  2  0  0  0  0
 10 12  1  0  0  0  0
 12 14  1  0  0  0  0
 12 15  1  0  0  0  0
 13 16  1  0  0  0  0
M  END
>  <CHROM.0>
-60.05395307,63.19401125,-56.99481873,-43.41787582,-52.45473602,-60.78319781
-67.89992034,60.59262685,-167.77580155

>  <CHROM.1>
154.63105886,143.10643897,-58.74348389,111.72959779,-27.08133181,13.67605595
-15.92518061,1.95749568,0.19294814,-0.33086783

>  <Name>
P130489237

>  <RI>
0

>  <Rbt.Current_Directory>
/home/fstefaniak/projects/zuza/docking/adenine/4TZX

>  <Rbt.Executable>
rbdock ($Id: //depot/dev/client3/rdock/2013.1/src/exe/rbdock.cxx#4 $)

>  <Rbt.Library>
libRbt.so (2013.1, Build901 2013/11/27)

>  <Rbt.Parameter_File>
/home/fstefaniak/progs/rDock//data/scripts/dock_solv.prm

>  <Rbt.Receptor>
4tzx.prm

>  <SCORE>
-39.4479

>  <SCORE.INTER>
-20.4853

>  <SCORE.INTER.CONST>
1

>  <SCORE.INTER.POLAR>
-2.35802

>  <SCORE.INTER.ROT>
3

>  <SCORE.INTER.SOLV>
7.38946

>  <SCORE.INTER.VDW>
-13.8599

>  <SCORE.INTER.norm>
-1.57579

>  <SCORE.INTRA>
0.0481374

>  <SCORE.INTRA.DIHEDRAL>
0.626399

>  <SCORE.INTRA.DIHEDRAL.0>
1.75399

>  <SCORE.INTRA.POLAR>
0.00139688

>  <SCORE.INTRA.POLAR.0>
-0.00139688

>  <SCORE.INTRA.REPUL>
0

>  <SCORE.INTRA.REPUL.0>
0

>  <SCORE.INTRA.SOLV>
-0.209164

>  <SCORE.INTRA.SOLV.lig_0>
-14.8658

>  <SCORE.INTRA.VDW>
-0.16523

>  <SCORE.INTRA.VDW.0>
1.19279

>  <SCORE.INTRA.norm>
0.00370288

>  <SCORE.RESTR>
0.000117831

>  <SCORE.RESTR.CAVITY>
0.000117831

>  <SCORE.RESTR.norm>
9.06391e-06

>  <SCORE.SYSTEM>
-19.0109

>  <SCORE.SYSTEM.CONST>
0

>  <SCORE.SYSTEM.DIHEDRAL>
4.64688

>  <SCORE.SYSTEM.POLAR>
-3.07876

>  <SCORE.SYSTEM.SOLV>
0.0793612

>  <SCORE.SYSTEM.VDW>
-3.9868

>  <SCORE.SYSTEM.norm>
-1.46237

>  <SCORE.heavy>
13

>  <SCORE.norm>
-3.03445

$$$$
P130489237
 OpenBabel12072022113D
libRbt.so/2013.1/901 2013/11/27
 16 16  0  0  0  0  0  0  0  0999 V2000
  -30.1689   17.1011  -16.2471 C   0  0  0  0  0  0  0  0  0  0  0  0
  -28.7239   16.9809  -15.7715 C   0  0  0  0  0  0  0  0  0  0  0  0
  -27.9692   15.8825  -16.4135 N   0  0  0  0  0  0  0  0  0  0  0  0
  -26.5251   16.1599  -16.4096 C   0  0  0  0  0  0  0  0  0  0  0  0
  -25.6288   15.1048  -17.0704 C   0  0  0  0  0  0  0  0  0  0  0  0
  -25.4630   13.8402  -16.2313 C   0  0  0  0  0  0  0  0  0  0  0  0
  -26.5909   12.8131  -16.3989 C   0  0  2  0  0  0  0  0  0  0  0  0
  -27.9835   13.4035  -16.6403 C   0  0  0  0  0  0  0  0  0  0  0  0
  -28.3264   14.6083  -15.7649 C   0  0  0  0  0  0  0  0  0  0  0  0
  -26.6000   11.8830  -15.1579 C   0  0  0  0  0  0  0  0  0  0  0  0
  -26.1437   10.7454  -15.1334 O   0  0  0  0  0  0  0  0  0  0  0  0
  -27.1984   12.4216  -14.0509 N   0  0  0  0  0  0  0  0  0  0  0  0
  -26.2538   11.9852  -17.5337 O   0  0  0  0  0  0  0  0  0  0  0  0
  -26.6726   12.4683  -13.1851 H   0  0  0  0  0  0  0  0  0  0  0  0
  -28.2083   12.4179  -14.0113 H   0  0  0  0  0  0  0  0  0  0  0  0
  -26.1445   12.5808  -18.2970 H   0  0  0  0  0  0  0  0  0  0  0  0
  1  2  1  0  0  0  0
  2  3  1  0  0  0  0
  3  4  1  0  0  0  0
  3  9  1  0  0  0  0
  4  5  1  0  0  0  0
  5  6  1  0  0  0  0
  6  7  1  0  0  0  0
  7  8  1  0  0  0  0
  7 10  1  1  0  0  0
  7 13  1  0  0  0  0
  8  9  1  0  0  0  0
 10 11  2  0  0  0  0
 10 12  1  0  0  0  0
 12 14  1  0  0  0  0
 12 15  1  0  0  0  0
 13 16  1  0  0  0  0
M  END
>  <CHROM.0>
-57.87015687,-174.22770827,-69.92599296,52.57009735,-58.95776261,-176.47655434
-68.71610761,-172.28383174,-168.43371907

>  <CHROM.1>
154.53254916,-102.14716348,-57.34332837,-124.61369312,-27.20290380,14.04216703
-16.06180539,2.12560627,0.57276922,-0.42771748

>  <Name>
P130489237

>  <RI>
0

>  <Rbt.Current_Directory>
/home/fstefaniak/projects/zuza/docking/adenine/4TZX

>  <Rbt.Executable>
rbdock ($Id: //depot/dev/client3/rdock/2013.1/src/exe/rbdock.cxx#4 $)

>  <Rbt.Library>
libRbt.so (2013.1, Build901 2013/11/27)

>  <Rbt.Parameter_File>
/home/fstefaniak/progs/rDock//data/scripts/dock_solv.prm

>  <Rbt.Receptor>
4tzx.prm

>  <SCORE>
-39.1109

>  <SCORE.INTER>
-21.3586

>  <SCORE.INTER.CONST>
1

>  <SCORE.INTER.POLAR>
-2.57911

>  <SCORE.INTER.ROT>
3

>  <SCORE.INTER.SOLV>
9.66499

>  <SCORE.INTER.VDW>
-14.4637

>  <SCORE.INTER.norm>
-1.64297

>  <SCORE.INTRA>
-0.763895

>  <SCORE.INTRA.DIHEDRAL>
0.354366

>  <SCORE.INTRA.DIHEDRAL.0>
1.75399

>  <SCORE.INTRA.POLAR>
0.00139688

>  <SCORE.INTRA.POLAR.0>
-0.00139688

>  <SCORE.INTRA.REPUL>
0

>  <SCORE.INTRA.REPUL.0>
0

>  <SCORE.INTRA.SOLV>
-0.171074

>  <SCORE.INTRA.SOLV.lig_0>
-14.8658

>  <SCORE.INTRA.VDW>
-0.86029

>  <SCORE.INTRA.VDW.0>
1.19279

>  <SCORE.INTRA.norm>
-0.0587611

>  <SCORE.RESTR>
0.666425

>  <SCORE.RESTR.CAVITY>
0.666425

>  <SCORE.RESTR.norm>
0.0512635

>  <SCORE.SYSTEM>
-17.6548

>  <SCORE.SYSTEM.CONST>
0

>  <SCORE.SYSTEM.DIHEDRAL>
4.26066

>  <SCORE.SYSTEM.POLAR>
-2.47492

>  <SCORE.SYSTEM.SOLV>
-0.169775

>  <SCORE.SYSTEM.VDW>
-4.88375

>  <SCORE.SYSTEM.norm>
-1.35806

>  <SCORE.heavy>
13

>  <SCORE.norm>
-3.00853

$$$$
P130489237
 OpenBabel12072022113D
libRbt.so/2013.1/901 2013/11/27
 16 16  0  0  0  0  0  0  0  0999 V2000
  -30.1163   17.2429  -16.5462 C   0  0  0  0  0  0  0  0  0  0  0  0
  -28.7063   17.1040  -15.9796 C   0  0  0  0  0  0  0  0  0  0  0  0
  -27.9630   15.9343  -16.4971 N   0  0  0  0  0  0  0  0  0  0  0  0
  -26.5109   16.1450  -16.4004 C   0  0  0  0  0  0  0  0  0  0  0  0
  -25.6231   15.0110  -16.9285 C   0  0  0  0  0  0  0  0  0  0  0  0
  -25.5824   13.7949  -16.0064 C   0  0  0  0  0  0  0  0  0  0  0  0
  -26.7453   12.8119  -16.1982 C   0  0  2  0  0  0  0  0  0  0  0  0
  -28.0853   13.4492  -16.5783 C   0  0  0  0  0  0  0  0  0  0  0  0
  -28.4300   14.7207  -15.8036 C   0  0  0  0  0  0  0  0  0  0  0  0
  -26.8912   11.9623  -14.9089 C   0  0  0  0  0  0  0  0  0  0  0  0
  -26.0194   11.8283  -14.0576 O   0  0  0  0  0  0  0  0  0  0  0  0
  -28.0944   11.3212  -14.7863 N   0  0  0  0  0  0  0  0  0  0  0  0
  -26.3688   11.9005  -17.2537 O   0  0  0  0  0  0  0  0  0  0  0  0
  -28.2217   10.4281  -15.2495 H   0  0  0  0  0  0  0  0  0  0  0  0
  -28.9074   11.8807  -14.5687 H   0  0  0  0  0  0  0  0  0  0  0  0
  -26.1136   12.4443  -18.0208 H   0  0  0  0  0  0  0  0  0  0  0  0
  1  2  1  0  0  0  0
  2  3  1  0  0  0  0
  3  4  1  0  0  0  0
  3  9  1  0  0  0  0
  4  5  1  0  0  0  0
  5  6  1  0  0  0  0
  6  7  1  0  0  0  0
  7  8  1  0  0  0  0
  7 10  1  1  0  0  0
  7 13  1  0  0  0  0
  8  9  1  0  0  0  0
 10 11  2  0  0  0  0
 10 12  1  0  0  0  0
 12 14  1  0  0  0  0
 12 15  1  0  0  0  0
 13 16  1  0  0  0  0
M  END
>  <CHROM.0>
-58.70138493,-59.92113398,61.55538405,-43.50623105,-56.86729510,-60.94432770
56.55389927,-58.14891785,-168.87521136

>  <CHROM.1>
155.80140754,-18.81172647,-53.40622904,83.89169691,-27.32715863,14.06041744
-16.00036885,1.97847022,0.29733113,-0.33648814

>  <Name>
P130489237

>  <RI>
0

>  <Rbt.Current_Directory>
/home/fstefaniak/projects/zuza/docking/adenine/4TZX

>  <Rbt.Executable>
rbdock ($Id: //depot/dev/client3/rdock/2013.1/src/exe/rbdock.cxx#4 $)

>  <Rbt.Library>
libRbt.so (2013.1, Build901 2013/11/27)

>  <Rbt.Parameter_File>
/home/fstefaniak/progs/rDock//data/scripts/dock_solv.prm

>  <Rbt.Receptor>
4tzx.prm

>  <SCORE>
-36.755

>  <SCORE.INTER>
-18.0048

>  <SCORE.INTER.CONST>
1

>  <SCORE.INTER.POLAR>
-1.49675

>  <SCORE.INTER.ROT>
3

>  <SCORE.INTER.SOLV>
8.80766

>  <SCORE.INTER.VDW>
-15.5499

>  <SCORE.INTER.norm>
-1.38499

>  <SCORE.INTRA>
0.353928

>  <SCORE.INTRA.DIHEDRAL>
1.12499

>  <SCORE.INTRA.DIHEDRAL.0>
1.75399

>  <SCORE.INTRA.POLAR>
0.00139688

>  <SCORE.INTRA.POLAR.0>
-0.00139688

>  <SCORE.INTRA.REPUL>
0

>  <SCORE.INTRA.REPUL.0>
0

>  <SCORE.INTRA.SOLV>
-0.199839

>  <SCORE.INTRA.SOLV.lig_0>
-14.8658

>  <SCORE.INTRA.VDW>
-0.113397

>  <SCORE.INTRA.VDW.0>
1.19279

>  <SCORE.INTRA.norm>
0.0272252

>  <SCORE.RESTR>
0.00240493

>  <SCORE.RESTR.CAVITY>
0.00240493

>  <SCORE.RESTR.norm>
0.000184995

>  <SCORE.SYSTEM>
-19.1066

>  <SCORE.SYSTEM.CONST>
0

>  <SCORE.SYSTEM.DIHEDRAL>
4.03202

>  <SCORE.SYSTEM.POLAR>
-3.04075

>  <SCORE.SYSTEM.SOLV>
0.0848948

>  <SCORE.SYSTEM.VDW>
-3.97416

>  <SCORE.SYSTEM.norm>
-1.46973

>  <SCORE.heavy>
13

>  <SCORE.norm>
-2.82731

$$$$
P130754868
 OpenBabel12072022113D
libRbt.so/2013.1/901 2013/11/27
 15 15  0  0  0  0  0  0  0  0999 V2000
  -27.0186   12.9691  -15.9462 C   0  0  0  0  0  0  0  0  0  0  0  0
  -25.9561   13.8632  -16.5596 C   0  0  0  0  0  0  0  0  0  0  0  0
  -26.6216   15.2323  -16.6727 C   0  0  0  0  0  0  0  0  0  0  0  0
  -28.1330   14.9722  -16.6915 C   0  0  0  0  0  0  0  0  0  0  0  0
  -28.2999   13.4543  -16.6077 C   0  0  0  0  0  0  0  0  0  0  0  0
  -28.7930   15.6325  -15.5043 C   0  0  0  0  0  0  0  0  0  0  0  0
  -29.9220   16.2493  -15.6357 N   0  0  0  0  0  0  0  0  0  0  0  0
  -30.3286   16.7777  -14.4042 N   0  0  0  0  0  0  0  0  0  0  0  0
  -31.1861   17.7372  -14.5433 C   0  0  0  0  0  0  0  0  0  0  0  0
  -31.6769   18.1952  -15.7205 N   0  0  0  0  0  0  0  0  0  0  0  0
  -31.7118   18.4175  -13.5001 N   0  0  0  0  0  0  0  0  0  0  0  0
  -32.5867   17.7531  -15.8504 H   0  0  0  0  0  0  0  0  0  0  0  0
  -31.0633   17.9667  -16.4918 H   0  0  0  0  0  0  0  0  0  0  0  0
  -31.1258   19.2075  -13.2528 H   0  0  0  0  0  0  0  0  0  0  0  0
  -31.8746   17.8150  -12.7026 H   0  0  0  0  0  0  0  0  0  0  0  0
  1  2  1  0  0  0  0
  1  5  1  0  0  0  0
  2  3  1  0  0  0  0
  3  4  1  0  0  0  0
  4  5  1  0  0  0  0
  4  6  1  0  0  0  0
  6  7  2  0  0  0  0
  7  8  1  0  0  0  0
  8  9  2  0  0  0  0
  9 10  1  0  0  0  0
  9 11  1  0  0  0  0
 10 12  1  0  0  0  0
 10 13  1  0  0  0  0
 11 14  1  0  0  0  0
 11 15  1  0  0  0  0
M  END
>  <CHROM.0>
-55.82148264,-63.09766735,-70.37882215,-42.68080476,-60.10942107,-175.86266123
-68.14797868,-59.93504248,-168.17599239

>  <CHROM.1>
138.45295263,159.23641158,98.55129076,88.07590691,-29.10597266,15.81546597
-15.59780595,0.13076634,-0.78397273,2.20583731

>  <Name>
P130754868

>  <RI>
0

>  <Rbt.Current_Directory>
/home/fstefaniak/projects/zuza/docking/adenine/4TZX

>  <Rbt.Executable>
rbdock ($Id: //depot/dev/client3/rdock/2013.1/src/exe/rbdock.cxx#4 $)

>  <Rbt.Library>
libRbt.so (2013.1, Build901 2013/11/27)

>  <Rbt.Parameter_File>
/home/fstefaniak/progs/rDock//data/scripts/dock_solv.prm

>  <Rbt.Receptor>
4tzx.prm

>  <SCORE>
-54.6449

>  <SCORE.INTER>
-34.6514

>  <SCORE.INTER.CONST>
1

>  <SCORE.INTER.POLAR>
-4.52454

>  <SCORE.INTER.ROT>
4

>  <SCORE.INTER.SOLV>
11.6591

>  <SCORE.INTER.VDW>
-18.1722

>  <SCORE.INTER.norm>
-3.15013

>  <SCORE.INTRA>
0.86577

>  <SCORE.INTRA.DIHEDRAL>
0.506209

>  <SCORE.INTRA.DIHEDRAL.0>
2.01532

>  <SCORE.INTRA.POLAR>
0.180014

>  <SCORE.INTRA.POLAR.0>
-0.198813

>  <SCORE.INTRA.REPUL>
0

>  <SCORE.INTRA.REPUL.0>
0

>  <SCORE.INTRA.SOLV>
-0.0326538

>  <SCORE.INTRA.SOLV.lig_0>
-10.8406

>  <SCORE.INTRA.VDW>
0.0169428

>  <SCORE.INTRA.VDW.0>
-0.710625

>  <SCORE.INTRA.norm>
0.0787064

>  <SCORE.RESTR>
0

>  <SCORE.RESTR.CAVITY>
0

>  <SCORE.RESTR.norm>
0

>  <SCORE.SYSTEM>
-20.8592

>  <SCORE.SYSTEM.CONST>
0

>  <SCORE.SYSTEM.DIHEDRAL>
5.06299

>  <SCORE.SYSTEM.POLAR>
-3.07373

>  <SCORE.SYSTEM.SOLV>
0.0617602

>  <SCORE.SYSTEM.VDW>
-5.36864

>  <SCORE.SYSTEM.norm>
-1.89629

>  <SCORE.heavy>
11

>  <SCORE.norm>
-4.96772

$$$$
P130754868
 OpenBabel12072022113D
libRbt.so/2013.1/901 2013/11/27
 15 15  0  0  0  0  0  0  0  0999 V2000
  -26.2452   15.0311  -17.0275 C   0  0  0  0  0  0  0  0  0  0  0  0
  -26.8823   13.7760  -16.4586 C   0  0  0  0  0  0  0  0  0  0  0  0
  -28.3153   14.1856  -16.1289 C   0  0  0  0  0  0  0  0  0  0  0  0
  -28.2948   15.7094  -15.9555 C   0  0  0  0  0  0  0  0  0  0  0  0
  -26.8427   16.1380  -16.1716 C   0  0  0  0  0  0  0  0  0  0  0  0
  -29.1871   16.3656  -16.9822 C   0  0  0  0  0  0  0  0  0  0  0  0
  -29.7141   17.5243  -16.7542 N   0  0  0  0  0  0  0  0  0  0  0  0
  -30.4979   17.9203  -17.8449 N   0  0  0  0  0  0  0  0  0  0  0  0
  -31.6929   18.2662  -17.4879 C   0  0  0  0  0  0  0  0  0  0  0  0
  -32.1667   18.2799  -16.2183 N   0  0  0  0  0  0  0  0  0  0  0  0
  -32.6403   18.6686  -18.3643 N   0  0  0  0  0  0  0  0  0  0  0  0
  -31.3860   18.0298  -15.6117 H   0  0  0  0  0  0  0  0  0  0  0  0
  -32.9270   17.6229  -16.0995 H   0  0  0  0  0  0  0  0  0  0  0  0
  -32.8823   17.9188  -19.0031 H   0  0  0  0  0  0  0  0  0  0  0  0
  -32.3590   19.5030  -18.8646 H   0  0  0  0  0  0  0  0  0  0  0  0
  1  2  1  0  0  0  0
  1  5  1  0  0  0  0
  2  3  1  0  0  0  0
  3  4  1  0  0  0  0
  4  5  1  0  0  0  0
  4  6  1  0  0  0  0
  6  7  2  0  0  0  0
  7  8  1  0  0  0  0
  8  9  2  0  0  0  0
  9 10  1  0  0  0  0
  9 11  1  0  0  0  0
 10 12  1  0  0  0  0
 10 13  1  0  0  0  0
 11 14  1  0  0  0  0
 11 15  1  0  0  0  0
M  END
>  <CHROM.0>
-57.31328037,-61.94755531,-66.76011380,-43.30564430,-56.91152494,-179.35331834
-69.81306696,-66.26791488,-167.56260290

>  <CHROM.1>
154.43902243,127.93078229,3.76902867,63.76367437,-29.37207105,16.56156388
-16.86465334,-0.61039506,0.25936708,-0.64061889

>  <Name>
P130754868

>  <RI>
0

>  <Rbt.Current_Directory>
/home/fstefaniak/projects/zuza/docking/adenine/4TZX

>  <Rbt.Executable>
rbdock ($Id: //depot/dev/client3/rdock/2013.1/src/exe/rbdock.cxx#4 $)

>  <Rbt.Library>
libRbt.so (2013.1, Build901 2013/11/27)

>  <Rbt.Parameter_File>
/home/fstefaniak/progs/rDock//data/scripts/dock_solv.prm

>  <Rbt.Receptor>
4tzx.prm

>  <SCORE>
-53.6619

>  <SCORE.INTER>
-34.063

>  <SCORE.INTER.CONST>
1

>  <SCORE.INTER.POLAR>
-4.84591

>  <SCORE.INTER.ROT>
4

>  <SCORE.INTER.SOLV>
11.6859

>  <SCORE.INTER.VDW>
-16.7176

>  <SCORE.INTER.norm>
-3.09663

>  <SCORE.INTRA>
1.23647

>  <SCORE.INTRA.DIHEDRAL>
2.32528

>  <SCORE.INTRA.DIHEDRAL.0>
2.01532

>  <SCORE.INTRA.POLAR>
0.00827889

>  <SCORE.INTRA.POLAR.0>
-0.198813

>  <SCORE.INTRA.REPUL>
0

>  <SCORE.INTRA.REPUL.0>
0

>  <SCORE.INTRA.SOLV>
0.0908015

>  <SCORE.INTRA.SOLV.lig_0>
-10.8406

>  <SCORE.INTRA.VDW>
0.000274245

>  <SCORE.INTRA.VDW.0>
-0.710625

>  <SCORE.INTRA.norm>
0.112406

>  <SCORE.RESTR>
0

>  <SCORE.RESTR.CAVITY>
0

>  <SCORE.RESTR.norm>
0

>  <SCORE.SYSTEM>
-20.8354

>  <SCORE.SYSTEM.CONST>
0

>  <SCORE.SYSTEM.DIHEDRAL>
4.96355

>  <SCORE.SYSTEM.POLAR>
-3.06773

>  <SCORE.SYSTEM.SOLV>
0.0523406

>  <SCORE.SYSTEM.VDW>
-5.33648

>  <SCORE.SYSTEM.norm>
-1.89413

>  <SCORE.heavy>
11

>  <SCORE.norm>
-4.87835

$$$$
P130754868
 OpenBabel12072022113D
libRbt.so/2013.1/901 2013/11/27
 15 15  0  0  0  0  0  0  0  0999 V2000
  -30.3607   18.4781  -17.7993 C   0  0  0  0  0  0  0  0  0  0  0  0
  -31.6135   18.4720  -16.9418 C   0  0  0  0  0  0  0  0  0  0  0  0
  -31.1822   17.8165  -15.6325 C   0  0  0  0  0  0  0  0  0  0  0  0
  -29.9475   16.9695  -15.9653 C   0  0  0  0  0  0  0  0  0  0  0  0
  -29.7096   17.1440  -17.4659 C   0  0  0  0  0  0  0  0  0  0  0  0
  -28.7491   17.4628  -15.1898 C   0  0  0  0  0  0  0  0  0  0  0  0
  -28.7948   17.5686  -13.9017 N   0  0  0  0  0  0  0  0  0  0  0  0
  -27.5721   18.0461  -13.4139 N   0  0  0  0  0  0  0  0  0  0  0  0
  -27.7012   18.6451  -12.2738 C   0  0  0  0  0  0  0  0  0  0  0  0
  -28.8593   18.7970  -11.5865 N   0  0  0  0  0  0  0  0  0  0  0  0
  -26.6656   19.2069  -11.6110 N   0  0  0  0  0  0  0  0  0  0  0  0
  -29.1667   17.8619  -11.3201 H   0  0  0  0  0  0  0  0  0  0  0  0
  -29.5671   19.2513  -12.1490 H   0  0  0  0  0  0  0  0  0  0  0  0
  -26.9606   20.0492  -11.1289 H   0  0  0  0  0  0  0  0  0  0  0  0
  -25.8812   19.3889  -12.2249 H   0  0  0  0  0  0  0  0  0  0  0  0
  1  2  1  0  0  0  0
  1  5  1  0  0  0  0
  2  3  1  0  0  0  0
  3  4  1  0  0  0  0
  4  5  1  0  0  0  0
  4  6  1  0  0  0  0
  6  7  2  0  0  0  0
  7  8  1  0  0  0  0
  8  9  2  0  0  0  0
  9 10  1  0  0  0  0
  9 11  1  0  0  0  0
 10 12  1  0  0  0  0
 10 13  1  0  0  0  0
 11 14  1  0  0  0  0
 11 15  1  0  0  0  0
M  END
>  <CHROM.0>
-60.03121212,59.73640270,-70.02695640,-42.03656388,-56.78226385,179.27657775
-169.56523840,-171.87294208,-169.35041556

>  <CHROM.1>
54.64902004,155.12974679,64.73487028,144.57916105,-29.18011082,18.08652042
-14.65043669,-2.12073913,-0.21684928,1.26042354

>  <Name>
P130754868

>  <RI>
0

>  <Rbt.Current_Directory>
/home/fstefaniak/projects/zuza/docking/adenine/4TZX

>  <Rbt.Executable>
rbdock ($Id: //depot/dev/client3/rdock/2013.1/src/exe/rbdock.cxx#4 $)

>  <Rbt.Library>
libRbt.so (2013.1, Build901 2013/11/27)

>  <Rbt.Parameter_File>
/home/fstefaniak/progs/rDock//data/scripts/dock_solv.prm

>  <Rbt.Receptor>
4tzx.prm

>  <SCORE>
-52.892

>  <SCORE.INTER>
-34.9193

>  <SCORE.INTER.CONST>
1

>  <SCORE.INTER.POLAR>
-4.21985

>  <SCORE.INTER.ROT>
4

>  <SCORE.INTER.SOLV>
14.2509

>  <SCORE.INTER.VDW>
-20.2303

>  <SCORE.INTER.norm>
-3.17448

>  <SCORE.INTRA>
1.40028

>  <SCORE.INTRA.DIHEDRAL>
1.13432

>  <SCORE.INTRA.DIHEDRAL.0>
2.01532

>  <SCORE.INTRA.POLAR>
0.198813

>  <SCORE.INTRA.POLAR.0>
-0.198813

>  <SCORE.INTRA.REPUL>
0

>  <SCORE.INTRA.REPUL.0>
0

>  <SCORE.INTRA.SOLV>
0.0433598

>  <SCORE.INTRA.SOLV.lig_0>
-10.8406

>  <SCORE.INTRA.VDW>
0.135481

>  <SCORE.INTRA.VDW.0>
-0.710625

>  <SCORE.INTRA.norm>
0.127298

>  <SCORE.RESTR>
0

>  <SCORE.RESTR.CAVITY>
0

>  <SCORE.RESTR.norm>
0

>  <SCORE.SYSTEM>
-19.373

>  <SCORE.SYSTEM.CONST>
0

>  <SCORE.SYSTEM.DIHEDRAL>
5.34012

>  <SCORE.SYSTEM.POLAR>
-3.04878

>  <SCORE.SYSTEM.SOLV>
-0.022202

>  <SCORE.SYSTEM.VDW>
-4.52534

>  <SCORE.SYSTEM.norm>
-1.76118

>  <SCORE.heavy>
11

>  <SCORE.norm>
-4.80836

$$$$
P130754917
 OpenBabel12072022113D
libRbt.so/2013.1/901 2013/11/27
 18 18  0  0  0  0  0  0  0  0999 V2000
  -29.9615   17.8340  -19.1669 C   0  0  0  0  0  0  0  0  0  0  0  0
  -30.1397   18.2670  -17.7088 C   0  0  0  0  0  0  0  0  0  0  0  0
  -31.1222   19.4439  -17.6482 C   0  0  0  0  0  0  0  0  0  0  0  0
  -30.6206   17.1006  -16.8037 C   0  0  1  0  0  0  0  0  0  0  0  0
  -29.5211   16.1427  -16.3372 C   0  0  0  0  0  0  0  0  0  0  0  0
  -28.7069   16.8537  -15.2825 C   0  0  0  0  0  0  0  0  0  0  0  0
  -27.4244   17.0556  -15.3050 N   0  0  0  0  0  0  0  0  0  0  0  0
  -26.7990   16.5405  -16.4418 N   0  0  0  0  0  0  0  0  0  0  0  0
  -25.7581   15.8288  -16.1504 C   0  0  0  0  0  0  0  0  0  0  0  0
  -25.2775   15.6019  -14.9039 N   0  0  0  0  0  0  0  0  0  0  0  0
  -25.0007   15.2099  -17.0833 N   0  0  0  0  0  0  0  0  0  0  0  0
  -29.5006   17.3752  -14.1141 C   0  0  0  0  0  0  0  0  0  0  0  0
  -30.5914   18.2624  -14.6830 C   0  0  0  0  0  0  0  0  0  0  0  0
  -31.3707   17.5684  -15.6632 O   0  0  0  0  0  0  0  0  0  0  0  0
  -24.4583   15.0041  -15.0070 H   0  0  0  0  0  0  0  0  0  0  0  0
  -25.0259   16.4652  -14.4394 H   0  0  0  0  0  0  0  0  0  0  0  0
  -25.2074   15.5634  -18.0111 H   0  0  0  0  0  0  0  0  0  0  0  0
  -24.0123   15.2773  -16.8734 H   0  0  0  0  0  0  0  0  0  0  0  0
  1  2  1  0  0  0  0
  2  3  1  0  0  0  0
  4  2  1  1  0  0  0
  4  5  1  0  0  0  0
  4 14  1  0  0  0  0
  5  6  1  0  0  0  0
  6  7  2  0  0  0  0
  6 12  1  0  0  0  0
  7  8  1  0  0  0  0
  8  9  2  0  0  0  0
  9 10  1  0  0  0  0
  9 11  1  0  0  0  0
 10 15  1  0  0  0  0
 10 16  1  0  0  0  0
 11 17  1  0  0  0  0
 11 18  1  0  0  0  0
 12 13  1  0  0  0  0
 13 14  1  0  0  0  0
M  END
>  <CHROM.0>
-59.05334293,77.11719359,-67.78688582,-42.01068518,-56.55948100,-58.74154454
-64.89271183,-58.31714653,-167.76283642

>  <CHROM.1>
80.97714323,-130.71785573,179.65255949,14.37076992,-28.67686834,17.07693297
-16.24872166,-2.95534314,-0.42331820,1.67075332

>  <Name>
P130754917

>  <RI>
0

>  <Rbt.Current_Directory>
/home/fstefaniak/projects/zuza/docking/adenine/4TZX

>  <Rbt.Executable>
rbdock ($Id: //depot/dev/client3/rdock/2013.1/src/exe/rbdock.cxx#4 $)

>  <Rbt.Library>
libRbt.so (2013.1, Build901 2013/11/27)

>  <Rbt.Parameter_File>
/home/fstefaniak/progs/rDock//data/scripts/dock_solv.prm

>  <Rbt.Receptor>
4tzx.prm

>  <SCORE>
-45.705

>  <SCORE.INTER>
-29.8929

>  <SCORE.INTER.CONST>
1

>  <SCORE.INTER.POLAR>
-5.15271

>  <SCORE.INTER.ROT>
4

>  <SCORE.INTER.SOLV>
15.5813

>  <SCORE.INTER.VDW>
-14.2134

>  <SCORE.INTER.norm>
-2.13521

>  <SCORE.INTRA>
3.39258

>  <SCORE.INTRA.DIHEDRAL>
3.31053

>  <SCORE.INTRA.DIHEDRAL.0>
1.10544

>  <SCORE.INTRA.POLAR>
0.189558

>  <SCORE.INTRA.POLAR.0>
-0.189558

>  <SCORE.INTRA.REPUL>
0

>  <SCORE.INTRA.REPUL.0>
0

>  <SCORE.INTRA.SOLV>
0.16693

>  <SCORE.INTRA.SOLV.lig_0>
-12.6681

>  <SCORE.INTRA.VDW>
1.00935

>  <SCORE.INTRA.VDW.0>
-0.219943

>  <SCORE.INTRA.norm>
0.242327

>  <SCORE.RESTR>
0

>  <SCORE.RESTR.CAVITY>
0

>  <SCORE.RESTR.norm>
0

>  <SCORE.SYSTEM>
-19.2046

>  <SCORE.SYSTEM.CONST>
0

>  <SCORE.SYSTEM.DIHEDRAL>
6.0037

>  <SCORE.SYSTEM.POLAR>
-3.07407

>  <SCORE.SYSTEM.SOLV>
0.205952

>  <SCORE.SYSTEM.VDW>
-4.62606

>  <SCORE.SYSTEM.norm>
-1.37176

>  <SCORE.heavy>
14

>  <SCORE.norm>
-3.26464

$$$$
P130754917
 OpenBabel12072022113D
libRbt.so/2013.1/901 2013/11/27
 18 18  0  0  0  0  0  0  0  0999 V2000
  -29.9821   17.8500  -19.1665 C   0  0  0  0  0  0  0  0  0  0  0  0
  -30.1759   18.2899  -17.7125 C   0  0  0  0  0  0  0  0  0  0  0  0
  -31.1631   19.4635  -17.6675 C   0  0  0  0  0  0  0  0  0  0  0  0
  -30.6613   17.1265  -16.8059 C   0  0  1  0  0  0  0  0  0  0  0  0
  -29.5662   16.1622  -16.3422 C   0  0  0  0  0  0  0  0  0  0  0  0
  -28.7451   16.8685  -15.2897 C   0  0  0  0  0  0  0  0  0  0  0  0
  -27.4614   17.0629  -15.3156 N   0  0  0  0  0  0  0  0  0  0  0  0
  -26.8421   16.5440  -16.4539 N   0  0  0  0  0  0  0  0  0  0  0  0
  -25.7718   15.8744  -16.1693 C   0  0  0  0  0  0  0  0  0  0  0  0
  -25.2585   15.6917  -14.9286 N   0  0  0  0  0  0  0  0  0  0  0  0
  -25.0128   15.2607  -17.1043 N   0  0  0  0  0  0  0  0  0  0  0  0
  -29.5327   17.3949  -14.1193 C   0  0  0  0  0  0  0  0  0  0  0  0
  -30.6196   18.2884  -14.6855 C   0  0  0  0  0  0  0  0  0  0  0  0
  -31.4056   17.5989  -15.6636 O   0  0  0  0  0  0  0  0  0  0  0  0
  -24.4139   15.1314  -15.0375 H   0  0  0  0  0  0  0  0  0  0  0  0
  -25.0397   16.5736  -14.4830 H   0  0  0  0  0  0  0  0  0  0  0  0
  -25.2072   15.6301  -18.0287 H   0  0  0  0  0  0  0  0  0  0  0  0
  -24.0257   15.3140  -16.8847 H   0  0  0  0  0  0  0  0  0  0  0  0
  1  2  1  0  0  0  0
  2  3  1  0  0  0  0
  4  2  1  1  0  0  0
  4  5  1  0  0  0  0
  4 14  1  0  0  0  0
  5  6  1  0  0  0  0
  6  7  2  0  0  0  0
  6 12  1  0  0  0  0
  7  8  1  0  0  0  0
  8  9  2  0  0  0  0
  9 10  1  0  0  0  0
  9 11  1  0  0  0  0
 10 15  1  0  0  0  0
 10 16  1  0  0  0  0
 11 17  1  0  0  0  0
 11 18  1  0  0  0  0
 12 13  1  0  0  0  0
 13 14  1  0  0  0  0
M  END
>  <CHROM.0>
-56.25190784,77.29245796,-68.36022981,-43.09932757,-171.57532912,-69.63510998
-65.61498301,-52.97014497,-168.77809496

>  <CHROM.1>
80.04394395,-133.51786304,-179.51615654,18.11148804,-28.70508795,17.10597761
-16.25842229,-2.96078318,-0.41645536,1.66977124

>  <Name>
P130754917

>  <RI>
0

>  <Rbt.Current_Directory>
/home/fstefaniak/projects/zuza/docking/adenine/4TZX

>  <Rbt.Executable>
rbdock ($Id: //depot/dev/client3/rdock/2013.1/src/exe/rbdock.cxx#4 $)

>  <Rbt.Library>
libRbt.so (2013.1, Build901 2013/11/27)

>  <Rbt.Parameter_File>
/home/fstefaniak/progs/rDock//data/scripts/dock_solv.prm

>  <Rbt.Receptor>
4tzx.prm

>  <SCORE>
-45.6921

>  <SCORE.INTER>
-29.7401

>  <SCORE.INTER.CONST>
1

>  <SCORE.INTER.POLAR>
-5.10641

>  <SCORE.INTER.ROT>
4

>  <SCORE.INTER.SOLV>
15.6545

>  <SCORE.INTER.VDW>
-14.2902

>  <SCORE.INTER.norm>
-2.12429

>  <SCORE.INTRA>
3.30285

>  <SCORE.INTRA.DIHEDRAL>
3.03183

>  <SCORE.INTRA.DIHEDRAL.0>
1.10544

>  <SCORE.INTRA.POLAR>
0.189558

>  <SCORE.INTRA.POLAR.0>
-0.189558

>  <SCORE.INTRA.REPUL>
0

>  <SCORE.INTRA.REPUL.0>
0

>  <SCORE.INTRA.SOLV>
0.140022

>  <SCORE.INTRA.SOLV.lig_0>
-12.6681

>  <SCORE.INTRA.VDW>
1.07243

>  <SCORE.INTRA.VDW.0>
-0.219943

>  <SCORE.INTRA.norm>
0.235918

>  <SCORE.RESTR>
0

>  <SCORE.RESTR.CAVITY>
0

>  <SCORE.RESTR.norm>
0

>  <SCORE.SYSTEM>
-19.2549

>  <SCORE.SYSTEM.CONST>
0

>  <SCORE.SYSTEM.DIHEDRAL>
6.78464

>  <SCORE.SYSTEM.POLAR>
-3.08881

>  <SCORE.SYSTEM.SOLV>
-0.000423549

>  <SCORE.SYSTEM.VDW>
-4.80194

>  <SCORE.SYSTEM.norm>
-1.37535

>  <SCORE.heavy>
14

>  <SCORE.norm>
-3.26372

$$$$
P130754917
 OpenBabel12072022113D
libRbt.so/2013.1/901 2013/11/27
 18 18  0  0  0  0  0  0  0  0999 V2000
  -29.9827   17.6406  -18.6204 C   0  0  0  0  0  0  0  0  0  0  0  0
  -30.6576   18.1957  -17.3628 C   0  0  0  0  0  0  0  0  0  0  0  0
  -31.9130   18.9791  -17.7678 C   0  0  0  0  0  0  0  0  0  0  0  0
  -31.0101   17.0790  -16.3431 C   0  0  1  0  0  0  0  0  0  0  0  0
  -29.8525   16.1488  -15.9705 C   0  0  0  0  0  0  0  0  0  0  0  0
  -28.9162   16.9162  -15.0676 C   0  0  0  0  0  0  0  0  0  0  0  0
  -27.6487   17.1181  -15.2643 N   0  0  0  0  0  0  0  0  0  0  0  0
  -27.1691   16.5434  -16.4426 N   0  0  0  0  0  0  0  0  0  0  0  0
  -26.0473   15.9227  -16.2658 C   0  0  0  0  0  0  0  0  0  0  0  0
  -25.3665   15.8347  -15.0975 N   0  0  0  0  0  0  0  0  0  0  0  0
  -25.3989   15.2704  -17.2563 N   0  0  0  0  0  0  0  0  0  0  0  0
  -29.5588   17.4988  -13.8368 C   0  0  0  0  0  0  0  0  0  0  0  0
  -30.7201   18.3531  -14.3082 C   0  0  0  0  0  0  0  0  0  0  0  0
  -31.6124   17.6066  -15.1427 O   0  0  0  0  0  0  0  0  0  0  0  0
  -24.5814   15.2050  -15.2593 H   0  0  0  0  0  0  0  0  0  0  0  0
  -25.0332   16.7401  -14.7920 H   0  0  0  0  0  0  0  0  0  0  0  0
  -24.3990   15.2555  -17.0867 H   0  0  0  0  0  0  0  0  0  0  0  0
  -25.7643   14.3365  -17.3966 H   0  0  0  0  0  0  0  0  0  0  0  0
  1  2  1  0  0  0  0
  2  3  1  0  0  0  0
  4  2  1  6  0  0  0
  4  5  1  0  0  0  0
  4 14  1  0  0  0  0
  5  6  1  0  0  0  0
  6  7  2  0  0  0  0
  6 12  1  0  0  0  0
  7  8  1  0  0  0  0
  8  9  2  0  0  0  0
  9 10  1  0  0  0  0
  9 11  1  0  0  0  0
 10 15  1  0  0  0  0
 10 16  1  0  0  0  0
 11 17  1  0  0  0  0
 11 18  1  0  0  0  0
 12 13  1  0  0  0  0
 13 14  1  0  0  0  0
M  END
>  <CHROM.0>
-60.14919789,71.15571445,-63.64620893,-42.97737410,-62.87009688,-63.73578350
-69.11595944,-51.44931952,-169.21349702

>  <CHROM.1>
52.09636199,-134.95417246,174.21284092,151.78242014,-28.96628076,17.07047392
-16.06739979,-3.09046813,-0.39419333,1.57729049

>  <Name>
P130754917

>  <RI>
0

>  <Rbt.Current_Directory>
/home/fstefaniak/projects/zuza/docking/adenine/4TZX

>  <Rbt.Executable>
rbdock ($Id: //depot/dev/client3/rdock/2013.1/src/exe/rbdock.cxx#4 $)

>  <Rbt.Library>
libRbt.so (2013.1, Build901 2013/11/27)

>  <Rbt.Parameter_File>
/home/fstefaniak/progs/rDock//data/scripts/dock_solv.prm

>  <Rbt.Receptor>
4tzx.prm

>  <SCORE>
-44.3327

>  <SCORE.INTER>
-27.0814

>  <SCORE.INTER.CONST>
1

>  <SCORE.INTER.POLAR>
-4.9745

>  <SCORE.INTER.ROT>
4

>  <SCORE.INTER.SOLV>
15.1552

>  <SCORE.INTER.VDW>
-12.791

>  <SCORE.INTER.norm>
-1.93438

>  <SCORE.INTRA>
2.4797

>  <SCORE.INTRA.DIHEDRAL>
1.82928

>  <SCORE.INTRA.DIHEDRAL.0>
1.10544

>  <SCORE.INTRA.POLAR>
0.189558

>  <SCORE.INTRA.POLAR.0>
-0.189558

>  <SCORE.INTRA.REPUL>
0

>  <SCORE.INTRA.REPUL.0>
0

>  <SCORE.INTRA.SOLV>
0.189231

>  <SCORE.INTRA.SOLV.lig_0>
-12.6681

>  <SCORE.INTRA.VDW>
0.825945

>  <SCORE.INTRA.VDW.0>
-0.219943

>  <SCORE.INTRA.norm>
0.177122

>  <SCORE.RESTR>
0

>  <SCORE.RESTR.CAVITY>
0

>  <SCORE.RESTR.norm>
0

>  <SCORE.SYSTEM>
-19.731

>  <SCORE.SYSTEM.CONST>
0

>  <SCORE.SYSTEM.DIHEDRAL>
5.38156

>  <SCORE.SYSTEM.POLAR>
-3.07145

>  <SCORE.SYSTEM.SOLV>
0.195724

>  <SCORE.SYSTEM.VDW>
-4.77495

>  <SCORE.SYSTEM.norm>
-1.40936

>  <SCORE.heavy>
14

>  <SCORE.norm>
-3.16662

$$$$
P131452763
 OpenBabel12072022113D
libRbt.so/2013.1/901 2013/11/27
 17 17  0  0  0  0  0  0  0  0999 V2000
  -30.5299   18.2716  -16.9575 C   0  0  0  0  0  0  0  0  0  0  0  0
  -29.9794   16.9311  -16.7404 C   0  0  0  0  0  0  0  0  0  0  0  0
  -29.5418   15.8275  -16.5534 C   0  0  0  0  0  0  0  0  0  0  0  0
  -29.0376   14.4707  -16.3068 C   0  0  0  0  0  0  0  0  0  0  0  0
  -27.7841   14.1543  -17.0033 N   0  0  0  0  0  0  0  0  0  0  0  0
  -27.9486   13.2601  -18.1678 C   0  0  0  0  0  0  0  0  0  0  0  0
  -27.8362   11.7420  -17.9031 C   0  0  0  0  0  0  0  0  0  0  0  0
  -26.6268   11.4457  -17.0729 N   0  3  0  0  0  0  0  0  0  0  0  0
  -25.7726   11.7078  -17.6046 H   0  0  0  0  0  0  0  0  0  0  0  0
  -26.5480   10.4415  -16.8765 H   0  0  0  0  0  0  0  0  0  0  0  0
  -26.5801   12.2436  -15.7959 C   0  0  0  0  0  0  0  0  0  0  0  0
  -26.6710   13.7589  -16.1029 C   0  0  1  0  0  0  0  0  0  0  0  0
  -25.3547   14.1570  -16.7952 C   0  0  0  0  0  0  0  0  0  0  0  0
  -24.4040   13.3792  -16.8765 O   0  0  0  0  0  0  0  0  0  0  0  0
  -25.3271   15.3915  -17.3682 N   0  0  0  0  0  0  0  0  0  0  0  0
  -25.0494   16.1763  -16.7886 H   0  0  0  0  0  0  0  0  0  0  0  0
  -25.1923   15.4983  -18.3676 H   0  0  0  0  0  0  0  0  0  0  0  0
  1  2  1  0  0  0  0
  2  3  3  0  0  0  0
  3  4  1  0  0  0  0
  4  5  1  0  0  0  0
  5  6  1  0  0  0  0
  5 12  1  0  0  0  0
  6  7  1  0  0  0  0
  7  8  1  0  0  0  0
  8  9  1  0  0  0  0
  8 10  1  0  0  0  0
  8 11  1  0  0  0  0
 11 12  1  0  0  0  0
 12 13  1  6  0  0  0
 13 14  2  0  0  0  0
 13 15  1  0  0  0  0
 15 16  1  0  0  0  0
 15 17  1  0  0  0  0
M  CHG  1   8   1
M  END
>  <CHROM.0>
-58.91597422,64.23102836,-63.96858948,-42.46942165,-175.32171585,-57.31321724
-64.95834480,-57.75191142,-169.18345577

>  <CHROM.1>
173.14523298,-105.33914246,-132.62438620,87.93846616,-27.43005406,14.18539101
-16.91811088,-2.31028716,0.03343712,-3.08004839

>  <Name>
P131452763

>  <RI>
0

>  <Rbt.Current_Directory>
/home/fstefaniak/projects/zuza/docking/adenine/4TZX

>  <Rbt.Executable>
rbdock ($Id: //depot/dev/client3/rdock/2013.1/src/exe/rbdock.cxx#4 $)

>  <Rbt.Library>
libRbt.so (2013.1, Build901 2013/11/27)

>  <Rbt.Parameter_File>
/home/fstefaniak/progs/rDock//data/scripts/dock_solv.prm

>  <Rbt.Receptor>
4tzx.prm

>  <SCORE>
-45.254

>  <SCORE.INTER>
-26.7508

>  <SCORE.INTER.CONST>
1

>  <SCORE.INTER.POLAR>
-3.1533

>  <SCORE.INTER.ROT>
4

>  <SCORE.INTER.SOLV>
12.3914

>  <SCORE.INTER.VDW>
-17.72

>  <SCORE.INTER.norm>
-2.05775

>  <SCORE.INTRA>
1.31859

>  <SCORE.INTRA.DIHEDRAL>
1.88555

>  <SCORE.INTRA.DIHEDRAL.0>
1.7075

>  <SCORE.INTRA.POLAR>
0.0632002

>  <SCORE.INTRA.POLAR.0>
-0.0632002

>  <SCORE.INTRA.REPUL>
0

>  <SCORE.INTRA.REPUL.0>
0

>  <SCORE.INTRA.SOLV>
-0.0974333

>  <SCORE.INTRA.SOLV.lig_0>
-30.2683

>  <SCORE.INTRA.VDW>
0.209648

>  <SCORE.INTRA.VDW.0>
-0.637986

>  <SCORE.INTRA.norm>
0.10143

>  <SCORE.RESTR>
0.405164

>  <SCORE.RESTR.CAVITY>
0.405164

>  <SCORE.RESTR.norm>
0.0311665

>  <SCORE.SYSTEM>
-20.227

>  <SCORE.SYSTEM.CONST>
0

>  <SCORE.SYSTEM.DIHEDRAL>
4.44349

>  <SCORE.SYSTEM.POLAR>
-3.07081

>  <SCORE.SYSTEM.SOLV>
0.0671134

>  <SCORE.SYSTEM.VDW>
-4.75215

>  <SCORE.SYSTEM.norm>
-1.55592

>  <SCORE.heavy>
13

>  <SCORE.norm>
-3.48108

$$$$
P131452763
 OpenBabel12072022113D
libRbt.so/2013.1/901 2013/11/27
 17 17  0  0  0  0  0  0  0  0999 V2000
  -30.4886   18.2588  -16.9612 C   0  0  0  0  0  0  0  0  0  0  0  0
  -29.9783   16.8999  -16.7616 C   0  0  0  0  0  0  0  0  0  0  0  0
  -29.5572   15.7887  -16.5813 C   0  0  0  0  0  0  0  0  0  0  0  0
  -29.0388   14.4390  -16.3256 C   0  0  0  0  0  0  0  0  0  0  0  0
  -27.7781   14.1339  -17.0140 N   0  0  0  0  0  0  0  0  0  0  0  0
  -27.9228   13.2143  -18.1613 C   0  0  0  0  0  0  0  0  0  0  0  0
  -27.7812   11.7041  -17.8673 C   0  0  0  0  0  0  0  0  0  0  0  0
  -26.5678   11.4477  -17.0297 N   0  3  0  0  0  0  0  0  0  0  0  0
  -25.7180   11.7161  -17.5650 H   0  0  0  0  0  0  0  0  0  0  0  0
  -26.4698   10.4492  -16.8138 H   0  0  0  0  0  0  0  0  0  0  0  0
  -26.5392   12.2708  -15.7682 C   0  0  0  0  0  0  0  0  0  0  0  0
  -26.6591   13.7778  -16.1045 C   0  0  1  0  0  0  0  0  0  0  0  0
  -25.3495   14.1882  -16.8024 C   0  0  0  0  0  0  0  0  0  0  0  0
  -24.3957   13.4157  -16.8970 O   0  0  0  0  0  0  0  0  0  0  0  0
  -25.3319   15.4277  -17.3649 N   0  0  0  0  0  0  0  0  0  0  0  0
  -25.0743   16.2116  -16.7749 H   0  0  0  0  0  0  0  0  0  0  0  0
  -25.1840   15.5447  -18.3612 H   0  0  0  0  0  0  0  0  0  0  0  0
  1  2  1  0  0  0  0
  2  3  3  0  0  0  0
  3  4  1  0  0  0  0
  4  5  1  0  0  0  0
  5  6  1  0  0  0  0
  5 12  1  0  0  0  0
  6  7  1  0  0  0  0
  7  8  1  0  0  0  0
  8  9  1  0  0  0  0
  8 10  1  0  0  0  0
  8 11  1  0  0  0  0
 11 12  1  0  0  0  0
 12 13  1  6  0  0  0
 13 14  2  0  0  0  0
 13 15  1  0  0  0  0
 15 16  1  0  0  0  0
 15 17  1  0  0  0  0
M  CHG  1   8   1
M  END
>  <CHROM.0>
-61.10381299,62.56552634,-65.34146270,-43.85411057,57.21364128,-66.95372232
-68.64299109,-60.22401104,-168.49719658

>  <CHROM.1>
-116.62299750,-106.31844049,-130.75074410,86.57522723,-27.41113167,14.18145808
-16.91666552,-2.31145248,0.02880886,-3.08929535

>  <Name>
P131452763

>  <RI>
0

>  <Rbt.Current_Directory>
/home/fstefaniak/projects/zuza/docking/adenine/4TZX

>  <Rbt.Executable>
rbdock ($Id: //depot/dev/client3/rdock/2013.1/src/exe/rbdock.cxx#4 $)

>  <Rbt.Library>
libRbt.so (2013.1, Build901 2013/11/27)

>  <Rbt.Parameter_File>
/home/fstefaniak/progs/rDock//data/scripts/dock_solv.prm

>  <Rbt.Receptor>
4tzx.prm

>  <SCORE>
-44.5953

>  <SCORE.INTER>
-26.8909

>  <SCORE.INTER.CONST>
1

>  <SCORE.INTER.POLAR>
-3.14079

>  <SCORE.INTER.ROT>
4

>  <SCORE.INTER.SOLV>
12.4036

>  <SCORE.INTER.VDW>
-17.8591

>  <SCORE.INTER.norm>
-2.06853

>  <SCORE.INTRA>
1.33531

>  <SCORE.INTRA.DIHEDRAL>
1.87291

>  <SCORE.INTRA.DIHEDRAL.0>
1.7075

>  <SCORE.INTRA.POLAR>
0.0632002

>  <SCORE.INTRA.POLAR.0>
-0.0632002

>  <SCORE.INTRA.REPUL>
0

>  <SCORE.INTRA.REPUL.0>
0

>  <SCORE.INTRA.SOLV>
-0.0939565

>  <SCORE.INTRA.SOLV.lig_0>
-30.2683

>  <SCORE.INTRA.VDW>
0.230957

>  <SCORE.INTRA.VDW.0>
-0.637986

>  <SCORE.INTRA.norm>
0.102716

>  <SCORE.RESTR>
0.417898

>  <SCORE.RESTR.CAVITY>
0.417898

>  <SCORE.RESTR.norm>
0.032146

>  <SCORE.SYSTEM>
-19.4577

>  <SCORE.SYSTEM.CONST>
0

>  <SCORE.SYSTEM.DIHEDRAL>
4.63902

>  <SCORE.SYSTEM.POLAR>
-3.02802

>  <SCORE.SYSTEM.SOLV>
-0.00133411

>  <SCORE.SYSTEM.VDW>
-4.42426

>  <SCORE.SYSTEM.norm>
-1.49674

>  <SCORE.heavy>
13

>  <SCORE.norm>
-3.43041

$$$$
P131452763
 OpenBabel12072022113D
libRbt.so/2013.1/901 2013/11/27
 17 17  0  0  0  0  0  0  0  0999 V2000
  -30.3380   18.1168  -17.2662 C   0  0  0  0  0  0  0  0  0  0  0  0
  -29.8076   16.7885  -16.9480 C   0  0  0  0  0  0  0  0  0  0  0  0
  -29.3776   15.7009  -16.6708 C   0  0  0  0  0  0  0  0  0  0  0  0
  -28.8638   14.3770  -16.2979 C   0  0  0  0  0  0  0  0  0  0  0  0
  -27.6025   14.0099  -16.9542 N   0  0  0  0  0  0  0  0  0  0  0  0
  -27.7736   13.2844  -18.2299 C   0  0  0  0  0  0  0  0  0  0  0  0
  -27.8359   11.7425  -18.1527 C   0  0  0  0  0  0  0  0  0  0  0  0
  -26.7256   11.2180  -17.2972 N   0  3  0  0  0  0  0  0  0  0  0  0
  -25.8133   11.4460  -17.7407 H   0  0  0  0  0  0  0  0  0  0  0  0
  -26.7640   10.1951  -17.2248 H   0  0  0  0  0  0  0  0  0  0  0  0
  -26.6894   11.8480  -15.9292 C   0  0  0  0  0  0  0  0  0  0  0  0
  -26.6029   13.3897  -16.0474 C   0  0  1  0  0  0  0  0  0  0  0  0
  -25.2066   13.7202  -16.6056 C   0  0  0  0  0  0  0  0  0  0  0  0
  -24.3268   12.8643  -16.6995 O   0  0  0  0  0  0  0  0  0  0  0  0
  -25.0235   14.9939  -17.0496 N   0  0  0  0  0  0  0  0  0  0  0  0
  -24.2928   15.5466  -16.6141 H   0  0  0  0  0  0  0  0  0  0  0  0
  -25.2907   15.2602  -17.9909 H   0  0  0  0  0  0  0  0  0  0  0  0
  1  2  1  0  0  0  0
  2  3  3  0  0  0  0
  3  4  1  0  0  0  0
  4  5  1  0  0  0  0
  5  6  1  0  0  0  0
  5 12  1  0  0  0  0
  6  7  1  0  0  0  0
  7  8  1  0  0  0  0
  8  9  1  0  0  0  0
  8 10  1  0  0  0  0
  8 11  1  0  0  0  0
 11 12  1  0  0  0  0
 12 13  1  6  0  0  0
 13 14  2  0  0  0  0
 13 15  1  0  0  0  0
 15 16  1  0  0  0  0
 15 17  1  0  0  0  0
M  CHG  1   8   1
M  END
>  <CHROM.0>
-62.08083381,-77.12418695,-69.74560388,-44.09543418,-179.19217093,-62.10696972
-169.83055618,178.74069081,-169.01529250

>  <CHROM.1>
-143.16834156,-90.97535058,-134.35958759,120.98787178,-27.32030463,13.95198915
-16.95515617,-2.30435475,0.14989140,-3.03290288

>  <Name>
P131452763

>  <RI>
0

>  <Rbt.Current_Directory>
/home/fstefaniak/projects/zuza/docking/adenine/4TZX

>  <Rbt.Executable>
rbdock ($Id: //depot/dev/client3/rdock/2013.1/src/exe/rbdock.cxx#4 $)

>  <Rbt.Library>
libRbt.so (2013.1, Build901 2013/11/27)

>  <Rbt.Parameter_File>
/home/fstefaniak/progs/rDock//data/scripts/dock_solv.prm

>  <Rbt.Receptor>
4tzx.prm

>  <SCORE>
-41.6694

>  <SCORE.INTER>
-23.0049

>  <SCORE.INTER.CONST>
1

>  <SCORE.INTER.POLAR>
-2.08977

>  <SCORE.INTER.ROT>
4

>  <SCORE.INTER.SOLV>
11.5583

>  <SCORE.INTER.VDW>
-18.4901

>  <SCORE.INTER.norm>
-1.76961

>  <SCORE.INTRA>
1.05244

>  <SCORE.INTRA.DIHEDRAL>
1.36267

>  <SCORE.INTRA.DIHEDRAL.0>
1.7075

>  <SCORE.INTRA.POLAR>
0.0632002

>  <SCORE.INTRA.POLAR.0>
-0.0632002

>  <SCORE.INTRA.REPUL>
0

>  <SCORE.INTRA.REPUL.0>
0

>  <SCORE.INTRA.SOLV>
-0.103918

>  <SCORE.INTRA.SOLV.lig_0>
-30.2683

>  <SCORE.INTRA.VDW>
0.208183

>  <SCORE.INTRA.VDW.0>
-0.637986

>  <SCORE.INTRA.norm>
0.0809569

>  <SCORE.RESTR>
0.429598

>  <SCORE.RESTR.CAVITY>
0.429598

>  <SCORE.RESTR.norm>
0.033046

>  <SCORE.SYSTEM>
-20.1465

>  <SCORE.SYSTEM.CONST>
0

>  <SCORE.SYSTEM.DIHEDRAL>
6.06058

>  <SCORE.SYSTEM.POLAR>
-3.00512

>  <SCORE.SYSTEM.SOLV>
-0.17653

>  <SCORE.SYSTEM.VDW>
-5.3753

>  <SCORE.SYSTEM.norm>
-1.54973

>  <SCORE.heavy>
13

>  <SCORE.norm>
-3.20534

$$$$
P131557109
 OpenBabel12072022113D
libRbt.so/2013.1/901 2013/11/27
 17 17  0  0  0  0  0  0  0  0999 V2000
  -29.1617   16.4573  -16.8320 C   0  0  0  0  0  0  0  0  0  0  0  0
  -29.8621   16.0271  -15.5373 C   0  0  0  0  0  0  0  0  0  0  0  0
  -30.0890   17.2107  -14.5913 C   0  0  2  0  0  0  0  0  0  0  0  0
  -30.9339   18.2982  -15.2878 C   0  0  0  0  0  0  0  0  0  0  0  0
  -30.4611   18.5929  -16.6813 C   0  0  0  0  0  0  0  0  0  0  0  0
  -29.6536   17.7704  -17.3666 C   0  0  0  0  0  0  0  0  0  0  0  0
  -28.7913   17.7820  -14.1400 N   0  0  0  0  0  0  0  0  0  0  0  0
  -28.5091   18.2335  -12.9064 C   0  0  0  0  0  0  0  0  0  0  0  0
  -27.2552   18.7361  -12.6450 N   0  3  0  0  0  0  0  0  0  0  0  0
  -26.5769   18.9470  -13.3755 H   0  0  0  0  0  0  0  0  0  0  0  0
  -26.9384   19.1429  -11.3386 N   0  0  0  0  0  0  0  0  0  0  0  0
  -29.4180   18.2175  -11.9200 N   0  0  0  0  0  0  0  0  0  0  0  0
  -28.0557   17.8462  -14.8339 H   0  0  0  0  0  0  0  0  0  0  0  0
  -25.9297   19.0284  -11.1789 H   0  0  0  0  0  0  0  0  0  0  0  0
  -27.1361   20.1458  -11.2307 H   0  0  0  0  0  0  0  0  0  0  0  0
  -30.3571   17.8736  -12.0464 H   0  0  0  0  0  0  0  0  0  0  0  0
  -29.1823   18.6934  -11.0579 H   0  0  0  0  0  0  0  0  0  0  0  0
  1  2  1  0  0  0  0
  1  6  1  0  0  0  0
  2  3  1  0  0  0  0
  3  4  1  0  0  0  0
  3  7  1  6  0  0  0
  4  5  1  0  0  0  0
  5  6  2  0  0  0  0
  7  8  1  0  0  0  0
  7 13  1  0  0  0  0
  8  9  2  0  0  0  0
  8 12  1  0  0  0  0
  9 10  1  0  0  0  0
  9 11  1  0  0  0  0
 11 14  1  0  0  0  0
 11 15  1  0  0  0  0
 12 16  1  0  0  0  0
 12 17  1  0  0  0  0
M  CHG  1   9   1
M  END
>  <CHROM.0>
-59.74948311,-63.90468822,-61.17086046,-43.28261008,-52.16097291,-66.23768490
-64.69468545,-62.01887298,-169.09491071

>  <CHROM.1>
-140.94742941,151.12143757,-29.12948349,17.89056423,-14.37919678,-2.01573108
0.00391502,1.27398159

>  <Name>
P131557109

>  <RI>
0

>  <Rbt.Current_Directory>
/home/fstefaniak/projects/zuza/docking/adenine/4TZX

>  <Rbt.Executable>
rbdock ($Id: //depot/dev/client3/rdock/2013.1/src/exe/rbdock.cxx#4 $)

>  <Rbt.Library>
libRbt.so (2013.1, Build901 2013/11/27)

>  <Rbt.Parameter_File>
/home/fstefaniak/progs/rDock//data/scripts/dock_solv.prm

>  <Rbt.Receptor>
4tzx.prm

>  <SCORE>
-45.8348

>  <SCORE.INTER>
-24.6444

>  <SCORE.INTER.CONST>
1

>  <SCORE.INTER.POLAR>
-4.10779

>  <SCORE.INTER.ROT>
2

>  <SCORE.INTER.SOLV>
19.9365

>  <SCORE.INTER.VDW>
-14.3158

>  <SCORE.INTER.norm>
-2.2404

>  <SCORE.INTRA>
-0.155528

>  <SCORE.INTRA.DIHEDRAL>
-0.0389529

>  <SCORE.INTRA.DIHEDRAL.0>
3.12423

>  <SCORE.INTRA.POLAR>
-0.00682269

>  <SCORE.INTRA.POLAR.0>
-0.02985

>  <SCORE.INTRA.REPUL>
0

>  <SCORE.INTRA.REPUL.0>
0

>  <SCORE.INTRA.SOLV>
-0.120474

>  <SCORE.INTRA.SOLV.lig_0>
-26.9231

>  <SCORE.INTRA.VDW>
-0.0526176

>  <SCORE.INTRA.VDW.0>
-0.988517

>  <SCORE.INTRA.norm>
-0.0141389

>  <SCORE.RESTR>
0

>  <SCORE.RESTR.CAVITY>
0

>  <SCORE.RESTR.norm>
0

>  <SCORE.SYSTEM>
-21.0348

>  <SCORE.SYSTEM.CONST>
0

>  <SCORE.SYSTEM.DIHEDRAL>
4.55525

>  <SCORE.SYSTEM.POLAR>
-3.06836

>  <SCORE.SYSTEM.SOLV>
0.188942

>  <SCORE.SYSTEM.VDW>
-5.37677

>  <SCORE.SYSTEM.norm>
-1.91226

>  <SCORE.heavy>
11

>  <SCORE.norm>
-4.1668

$$$$
P131557109
 OpenBabel12072022113D
libRbt.so/2013.1/901 2013/11/27
 17 17  0  0  0  0  0  0  0  0999 V2000
  -29.5795   16.3677  -16.9125 C   0  0  0  0  0  0  0  0  0  0  0  0
  -29.1314   15.9083  -15.5195 C   0  0  0  0  0  0  0  0  0  0  0  0
  -28.9894   17.0854  -14.5491 C   0  0  2  0  0  0  0  0  0  0  0  0
  -30.3284   17.8429  -14.4271 C   0  0  0  0  0  0  0  0  0  0  0  0
  -30.9683   18.1036  -15.7593 C   0  0  0  0  0  0  0  0  0  0  0  0
  -30.6195   17.4490  -16.8764 C   0  0  0  0  0  0  0  0  0  0  0  0
  -27.9160   18.0130  -14.9981 N   0  0  0  0  0  0  0  0  0  0  0  0
  -27.0284   18.6410  -14.2088 C   0  0  0  0  0  0  0  0  0  0  0  0
  -26.0921   19.4725  -14.7789 N   0  3  0  0  0  0  0  0  0  0  0  0
  -26.1370   19.7780  -15.7499 H   0  0  0  0  0  0  0  0  0  0  0  0
  -25.1209   20.0736  -13.9616 N   0  0  0  0  0  0  0  0  0  0  0  0
  -27.0321   18.4887  -12.8760 N   0  0  0  0  0  0  0  0  0  0  0  0
  -27.8584   18.1958  -15.9931 H   0  0  0  0  0  0  0  0  0  0  0  0
  -24.2352   20.1455  -14.4777 H   0  0  0  0  0  0  0  0  0  0  0  0
  -25.4040   21.0360  -13.7380 H   0  0  0  0  0  0  0  0  0  0  0  0
  -27.6965   17.9039  -12.3936 H   0  0  0  0  0  0  0  0  0  0  0  0
  -26.4256   19.0916  -12.3339 H   0  0  0  0  0  0  0  0  0  0  0  0
  1  2  1  0  0  0  0
  1  6  1  0  0  0  0
  2  3  1  0  0  0  0
  3  4  1  0  0  0  0
  3  7  1  6  0  0  0
  4  5  1  0  0  0  0
  5  6  2  0  0  0  0
  7  8  1  0  0  0  0
  7 13  1  0  0  0  0
  8  9  2  0  0  0  0
  8 12  1  0  0  0  0
  9 10  1  0  0  0  0
  9 11  1  0  0  0  0
 11 14  1  0  0  0  0
 11 15  1  0  0  0  0
 12 16  1  0  0  0  0
 12 17  1  0  0  0  0
M  CHG  1   9   1
M  END
>  <CHROM.0>
-60.15768472,-59.20691968,59.27183642,-43.69685816,-58.46490856,-66.15621948
55.89896915,-60.74426858,-168.95460978

>  <CHROM.1>
-140.58864335,145.00414302,-28.33844311,18.00284329,-14.95002170,-2.66907973
0.45620198,1.43072563

>  <Name>
P131557109

>  <RI>
0

>  <Rbt.Current_Directory>
/home/fstefaniak/projects/zuza/docking/adenine/4TZX

>  <Rbt.Executable>
rbdock ($Id: //depot/dev/client3/rdock/2013.1/src/exe/rbdock.cxx#4 $)

>  <Rbt.Library>
libRbt.so (2013.1, Build901 2013/11/27)

>  <Rbt.Parameter_File>
/home/fstefaniak/progs/rDock//data/scripts/dock_solv.prm

>  <Rbt.Receptor>
4tzx.prm

>  <SCORE>
-45.8031

>  <SCORE.INTER>
-26.4929

>  <SCORE.INTER.CONST>
1

>  <SCORE.INTER.POLAR>
-4.4914

>  <SCORE.INTER.ROT>
2

>  <SCORE.INTER.SOLV>
19.7771

>  <SCORE.INTER.VDW>
-14.2163

>  <SCORE.INTER.norm>
-2.40845

>  <SCORE.INTRA>
-0.143343

>  <SCORE.INTRA.DIHEDRAL>
-0.0187454

>  <SCORE.INTRA.DIHEDRAL.0>
3.12423

>  <SCORE.INTRA.POLAR>
-0.00682269

>  <SCORE.INTRA.POLAR.0>
-0.02985

>  <SCORE.INTRA.REPUL>
0

>  <SCORE.INTRA.REPUL.0>
0

>  <SCORE.INTRA.SOLV>
-0.138169

>  <SCORE.INTRA.SOLV.lig_0>
-26.9231

>  <SCORE.INTRA.VDW>
-0.0416883

>  <SCORE.INTRA.VDW.0>
-0.988517

>  <SCORE.INTRA.norm>
-0.0130312

>  <SCORE.RESTR>
0

>  <SCORE.RESTR.CAVITY>
0

>  <SCORE.RESTR.norm>
0

>  <SCORE.SYSTEM>
-19.1668

>  <SCORE.SYSTEM.CONST>
0

>  <SCORE.SYSTEM.DIHEDRAL>
4.12791

>  <SCORE.SYSTEM.POLAR>
-3.01814

>  <SCORE.SYSTEM.SOLV>
0.0663743

>  <SCORE.SYSTEM.VDW>
-4.11547

>  <SCORE.SYSTEM.norm>
-1.74243

>  <SCORE.heavy>
11

>  <SCORE.norm>
-4.16392

$$$$
P131557109
 OpenBabel12072022113D
libRbt.so/2013.1/901 2013/11/27
 17 17  0  0  0  0  0  0  0  0999 V2000
  -29.5454   16.3280  -16.9141 C   0  0  0  0  0  0  0  0  0  0  0  0
  -29.1245   15.9008  -15.5025 C   0  0  0  0  0  0  0  0  0  0  0  0
  -29.0053   17.0994  -14.5557 C   0  0  2  0  0  0  0  0  0  0  0  0
  -30.3484   17.8554  -14.4776 C   0  0  0  0  0  0  0  0  0  0  0  0
  -30.9618   18.0847  -15.8280 C   0  0  0  0  0  0  0  0  0  0  0  0
  -30.5886   17.4066  -16.9230 C   0  0  0  0  0  0  0  0  0  0  0  0
  -27.9254   18.0202  -15.0032 N   0  0  0  0  0  0  0  0  0  0  0  0
  -27.0312   18.6378  -14.2132 C   0  0  0  0  0  0  0  0  0  0  0  0
  -26.0894   19.4641  -14.7820 N   0  3  0  0  0  0  0  0  0  0  0  0
  -26.1338   19.7737  -15.7517 H   0  0  0  0  0  0  0  0  0  0  0  0
  -25.1117   20.0541  -13.9643 N   0  0  0  0  0  0  0  0  0  0  0  0
  -27.0334   18.4804  -12.8811 N   0  0  0  0  0  0  0  0  0  0  0  0
  -27.8682   18.2064  -15.9976 H   0  0  0  0  0  0  0  0  0  0  0  0
  -24.2297   20.1316  -14.4858 H   0  0  0  0  0  0  0  0  0  0  0  0
  -25.3923   21.0140  -13.7267 H   0  0  0  0  0  0  0  0  0  0  0  0
  -27.7016   17.8991  -12.3996 H   0  0  0  0  0  0  0  0  0  0  0  0
  -26.4211   19.0762  -12.3378 H   0  0  0  0  0  0  0  0  0  0  0  0
  1  2  1  0  0  0  0
  1  6  1  0  0  0  0
  2  3  1  0  0  0  0
  3  4  1  0  0  0  0
  3  7  1  6  0  0  0
  4  5  1  0  0  0  0
  5  6  2  0  0  0  0
  7  8  1  0  0  0  0
  7 13  1  0  0  0  0
  8  9  2  0  0  0  0
  8 12  1  0  0  0  0
  9 10  1  0  0  0  0
  9 11  1  0  0  0  0
 11 14  1  0  0  0  0
 11 15  1  0  0  0  0
 12 16  1  0  0  0  0
 12 17  1  0  0  0  0
M  CHG  1   9   1
M  END
>  <CHROM.0>
-57.12502340,-62.09631345,59.74146454,-43.40804605,-55.03191984,-61.24006452
55.66494902,-60.54037615,-168.28402502

>  <CHROM.1>
-138.52748099,145.70494737,-28.33479156,17.99255643,-14.96527996,-2.66596321
0.45873165,1.43481220

>  <Name>
P131557109

>  <RI>
0

>  <Rbt.Current_Directory>
/home/fstefaniak/projects/zuza/docking/adenine/4TZX

>  <Rbt.Executable>
rbdock ($Id: //depot/dev/client3/rdock/2013.1/src/exe/rbdock.cxx#4 $)

>  <Rbt.Library>
libRbt.so (2013.1, Build901 2013/11/27)

>  <Rbt.Parameter_File>
/home/fstefaniak/progs/rDock//data/scripts/dock_solv.prm

>  <Rbt.Receptor>
4tzx.prm

>  <SCORE>
-45.6223

>  <SCORE.INTER>
-26.3494

>  <SCORE.INTER.CONST>
1

>  <SCORE.INTER.POLAR>
-4.46728

>  <SCORE.INTER.ROT>
2

>  <SCORE.INTER.SOLV>
19.7952

>  <SCORE.INTER.VDW>
-14.2071

>  <SCORE.INTER.norm>
-2.3954

>  <SCORE.INTRA>
-0.174075

>  <SCORE.INTRA.DIHEDRAL>
-0.0248276

>  <SCORE.INTRA.DIHEDRAL.0>
3.12423

>  <SCORE.INTRA.POLAR>
-0.00682269

>  <SCORE.INTRA.POLAR.0>
-0.02985

>  <SCORE.INTRA.REPUL>
0

>  <SCORE.INTRA.REPUL.0>
0

>  <SCORE.INTRA.SOLV>
-0.140761

>  <SCORE.INTRA.SOLV.lig_0>
-26.9231

>  <SCORE.INTRA.VDW>
-0.068083

>  <SCORE.INTRA.VDW.0>
-0.988517

>  <SCORE.INTRA.norm>
-0.015825

>  <SCORE.RESTR>
0

>  <SCORE.RESTR.CAVITY>
0

>  <SCORE.RESTR.norm>
0

>  <SCORE.SYSTEM>
-19.0988

>  <SCORE.SYSTEM.CONST>
0

>  <SCORE.SYSTEM.DIHEDRAL>
4.23077

>  <SCORE.SYSTEM.POLAR>
-3.05278

>  <SCORE.SYSTEM.SOLV>
0.084841

>  <SCORE.SYSTEM.VDW>
-3.99515

>  <SCORE.SYSTEM.norm>
-1.73626

>  <SCORE.heavy>
11

>  <SCORE.norm>
-4.14748

$$$$
P131664782
 OpenBabel12072022113D
libRbt.so/2013.1/901 2013/11/27
 16 16  0  0  0  0  0  0  0  0999 V2000
  -29.1446   15.2238  -16.6282 C   0  0  0  0  0  0  0  0  0  0  0  0
  -30.0861   16.2404  -16.0125 C   0  0  0  0  0  0  0  0  0  0  0  0
  -30.5140   15.9647  -14.8125 N   0  0  0  0  0  0  0  0  0  0  0  0
  -31.3798   16.8927  -14.2334 N   0  0  0  0  0  0  0  0  0  0  0  0
  -30.7581   17.7325  -13.4696 C   0  0  0  0  0  0  0  0  0  0  0  0
  -29.4259   17.7439  -13.2203 N   0  0  0  0  0  0  0  0  0  0  0  0
  -31.3818   18.7329  -12.8082 N   0  0  0  0  0  0  0  0  0  0  0  0
  -30.3931   17.4062  -16.8249 C   0  0  0  0  0  0  0  0  0  0  0  0
  -30.9847   18.6328  -16.5742 C   0  0  0  0  0  0  0  0  0  0  0  0
  -30.9961   19.3555  -17.7920 C   0  0  0  0  0  0  0  0  0  0  0  0
  -30.4130   18.5347  -18.7237 C   0  0  0  0  0  0  0  0  0  0  0  0
  -30.0487   17.3588  -18.1565 O   0  0  0  0  0  0  0  0  0  0  0  0
  -29.1495   18.7194  -13.1170 H   0  0  0  0  0  0  0  0  0  0  0  0
  -29.1998   17.2240  -12.3818 H   0  0  0  0  0  0  0  0  0  0  0  0
  -32.3604   18.7863  -13.0687 H   0  0  0  0  0  0  0  0  0  0  0  0
  -31.2719   18.6462  -11.8051 H   0  0  0  0  0  0  0  0  0  0  0  0
  1  2  1  0  0  0  0
  2  3  2  0  0  0  0
  2  8  1  0  0  0  0
  3  4  1  0  0  0  0
  4  5  2  0  0  0  0
  5  6  1  0  0  0  0
  5  7  1  0  0  0  0
  6 13  1  0  0  0  0
  6 14  1  0  0  0  0
  7 15  1  0  0  0  0
  7 16  1  0  0  0  0
  8  9  2  0  0  0  0
  8 12  1  0  0  0  0
  9 10  1  0  0  0  0
 10 11  2  0  0  0  0
 11 12  1  0  0  0  0
M  END
>  <CHROM.0>
-61.72906328,-177.30083521,-65.46866402,-42.21800721,-55.69870352,-178.61488317
-67.31977276,60.15504947,-167.85100555

>  <CHROM.1>
-166.59341702,-95.52793384,145.60895821,-5.86536118,-30.44397377,17.47899302
-15.70588176,-1.36913278,-1.16580141,1.78365597

>  <Name>
P131664782

>  <RI>
0

>  <Rbt.Current_Directory>
/home/fstefaniak/projects/zuza/docking/adenine/4TZX

>  <Rbt.Executable>
rbdock ($Id: //depot/dev/client3/rdock/2013.1/src/exe/rbdock.cxx#4 $)

>  <Rbt.Library>
libRbt.so (2013.1, Build901 2013/11/27)

>  <Rbt.Parameter_File>
/home/fstefaniak/progs/rDock//data/scripts/dock_solv.prm

>  <Rbt.Receptor>
4tzx.prm

>  <SCORE>
-61.0423

>  <SCORE.INTER>
-43.6665

>  <SCORE.INTER.CONST>
1

>  <SCORE.INTER.POLAR>
-5.58326

>  <SCORE.INTER.ROT>
4

>  <SCORE.INTER.SOLV>
15.9018

>  <SCORE.INTER.VDW>
-22.0674

>  <SCORE.INTER.norm>
-3.63888

>  <SCORE.INTRA>
2.47478

>  <SCORE.INTRA.DIHEDRAL>
3.67608

>  <SCORE.INTRA.DIHEDRAL.0>
1.04121

>  <SCORE.INTRA.POLAR>
0.184672

>  <SCORE.INTRA.POLAR.0>
-0.184672

>  <SCORE.INTRA.REPUL>
0

>  <SCORE.INTRA.REPUL.0>
0

>  <SCORE.INTRA.SOLV>
1.05145

>  <SCORE.INTRA.SOLV.lig_0>
-15.2379

>  <SCORE.INTRA.VDW>
-0.516869

>  <SCORE.INTRA.VDW.0>
0.0418228

>  <SCORE.INTRA.norm>
0.206231

>  <SCORE.RESTR>
0

>  <SCORE.RESTR.CAVITY>
0

>  <SCORE.RESTR.norm>
0

>  <SCORE.SYSTEM>
-19.8505

>  <SCORE.SYSTEM.CONST>
0

>  <SCORE.SYSTEM.DIHEDRAL>
4.69961

>  <SCORE.SYSTEM.POLAR>
-3.06169

>  <SCORE.SYSTEM.SOLV>
-0.130415

>  <SCORE.SYSTEM.VDW>
-4.55111

>  <SCORE.SYSTEM.norm>
-1.65421

>  <SCORE.heavy>
12

>  <SCORE.norm>
-5.08685

$$$$
P131664782
 OpenBabel12072022113D
libRbt.so/2013.1/901 2013/11/27
 16 16  0  0  0  0  0  0  0  0999 V2000
  -29.1657   15.2614  -16.6473 C   0  0  0  0  0  0  0  0  0  0  0  0
  -30.0994   16.2757  -16.0163 C   0  0  0  0  0  0  0  0  0  0  0  0
  -30.5084   15.9979  -14.8101 N   0  0  0  0  0  0  0  0  0  0  0  0
  -31.3669   16.9238  -14.2168 N   0  0  0  0  0  0  0  0  0  0  0  0
  -30.7409   17.7371  -13.4284 C   0  0  0  0  0  0  0  0  0  0  0  0
  -29.4109   17.7249  -13.1676 N   0  0  0  0  0  0  0  0  0  0  0  0
  -31.3570   18.7302  -12.7490 N   0  0  0  0  0  0  0  0  0  0  0  0
  -30.4210   17.4417  -16.8225 C   0  0  0  0  0  0  0  0  0  0  0  0
  -31.0323   18.6575  -16.5667 C   0  0  0  0  0  0  0  0  0  0  0  0
  -31.0499   19.3876  -17.7800 C   0  0  0  0  0  0  0  0  0  0  0  0
  -30.4505   18.5818  -18.7143 C   0  0  0  0  0  0  0  0  0  0  0  0
  -30.0705   17.4081  -18.1530 O   0  0  0  0  0  0  0  0  0  0  0  0
  -29.1121   18.6963  -13.0921 H   0  0  0  0  0  0  0  0  0  0  0  0
  -29.2041   17.2261  -12.3114 H   0  0  0  0  0  0  0  0  0  0  0  0
  -32.3258   18.8197  -13.0353 H   0  0  0  0  0  0  0  0  0  0  0  0
  -31.2792   18.6048  -11.7470 H   0  0  0  0  0  0  0  0  0  0  0  0
  1  2  1  0  0  0  0
  2  3  2  0  0  0  0
  2  8  1  0  0  0  0
  3  4  1  0  0  0  0
  4  5  2  0  0  0  0
  5  6  1  0  0  0  0
  5  7  1  0  0  0  0
  6 13  1  0  0  0  0
  6 14  1  0  0  0  0
  7 15  1  0  0  0  0
  7 16  1  0  0  0  0
  8  9  2  0  0  0  0
  8 12  1  0  0  0  0
  9 10  1  0  0  0  0
 10 11  2  0  0  0  0
 11 12  1  0  0  0  0
M  END
>  <CHROM.0>
-60.44093843,-170.26293300,-174.04626138,-42.47042459,-58.22285557,-59.30703123
-177.58321235,-59.62652570,-168.92753628

>  <CHROM.1>
-167.98286664,-97.59132670,142.43962195,-7.45040944,-30.45531815,17.50413421
-15.68996796,-1.40807268,-1.15907186,1.75644598

>  <Name>
P131664782

>  <RI>
0

>  <Rbt.Current_Directory>
/home/fstefaniak/projects/zuza/docking/adenine/4TZX

>  <Rbt.Executable>
rbdock ($Id: //depot/dev/client3/rdock/2013.1/src/exe/rbdock.cxx#4 $)

>  <Rbt.Library>
libRbt.so (2013.1, Build901 2013/11/27)

>  <Rbt.Parameter_File>
/home/fstefaniak/progs/rDock//data/scripts/dock_solv.prm

>  <Rbt.Receptor>
4tzx.prm

>  <SCORE>
-59.8606

>  <SCORE.INTER>
-43.6937

>  <SCORE.INTER.CONST>
1

>  <SCORE.INTER.POLAR>
-5.62028

>  <SCORE.INTER.ROT>
4

>  <SCORE.INTER.SOLV>
15.9299

>  <SCORE.INTER.VDW>
-21.9715

>  <SCORE.INTER.norm>
-3.64114

>  <SCORE.INTRA>
2.39206

>  <SCORE.INTRA.DIHEDRAL>
3.53372

>  <SCORE.INTRA.DIHEDRAL.0>
1.04121

>  <SCORE.INTRA.POLAR>
0.184672

>  <SCORE.INTRA.POLAR.0>
-0.184672

>  <SCORE.INTRA.REPUL>
0

>  <SCORE.INTRA.REPUL.0>
0

>  <SCORE.INTRA.SOLV>
0.981038

>  <SCORE.INTRA.SOLV.lig_0>
-15.2379

>  <SCORE.INTRA.VDW>
-0.493203

>  <SCORE.INTRA.VDW.0>
0.0418228

>  <SCORE.INTRA.norm>
0.199338

>  <SCORE.RESTR>
0

>  <SCORE.RESTR.CAVITY>
0

>  <SCORE.RESTR.norm>
0

>  <SCORE.SYSTEM>
-18.559

>  <SCORE.SYSTEM.CONST>
0

>  <SCORE.SYSTEM.DIHEDRAL>
4.69149

>  <SCORE.SYSTEM.POLAR>
-2.53385

>  <SCORE.SYSTEM.SOLV>
0.0650051

>  <SCORE.SYSTEM.VDW>
-5.51199

>  <SCORE.SYSTEM.norm>
-1.54658

>  <SCORE.heavy>
12

>  <SCORE.norm>
-4.98838

$$$$
P131664782
 OpenBabel12072022113D
libRbt.so/2013.1/901 2013/11/27
 16 16  0  0  0  0  0  0  0  0999 V2000
  -31.5692   18.3731  -13.4581 C   0  0  0  0  0  0  0  0  0  0  0  0
  -30.5168   17.8846  -14.4341 C   0  0  0  0  0  0  0  0  0  0  0  0
  -29.5063   17.2499  -13.9094 N   0  0  0  0  0  0  0  0  0  0  0  0
  -28.5313   16.7933  -14.7965 N   0  0  0  0  0  0  0  0  0  0  0  0
  -28.9276   15.7633  -15.4725 C   0  0  0  0  0  0  0  0  0  0  0  0
  -30.1340   15.1556  -15.3604 N   0  0  0  0  0  0  0  0  0  0  0  0
  -28.1627   15.1500  -16.4031 N   0  0  0  0  0  0  0  0  0  0  0  0
  -30.7609   18.1704  -15.8384 C   0  0  0  0  0  0  0  0  0  0  0  0
  -29.9990   18.0826  -16.9913 C   0  0  0  0  0  0  0  0  0  0  0  0
  -30.8118   18.5066  -18.0707 C   0  0  0  0  0  0  0  0  0  0  0  0
  -32.0266   18.8325  -17.5233 C   0  0  0  0  0  0  0  0  0  0  0  0
  -32.0088   18.6380  -16.1820 O   0  0  0  0  0  0  0  0  0  0  0  0
  -30.5777   15.2008  -16.2766 H   0  0  0  0  0  0  0  0  0  0  0  0
  -30.0394   14.1928  -15.0628 H   0  0  0  0  0  0  0  0  0  0  0  0
  -28.5392   14.2387  -16.6400 H   0  0  0  0  0  0  0  0  0  0  0  0
  -28.0419   15.7245  -17.2285 H   0  0  0  0  0  0  0  0  0  0  0  0
  1  2  1  0  0  0  0
  2  3  2  0  0  0  0
  2  8  1  0  0  0  0
  3  4  1  0  0  0  0
  4  5  2  0  0  0  0
  5  6  1  0  0  0  0
  5  7  1  0  0  0  0
  6 13  1  0  0  0  0
  6 14  1  0  0  0  0
  7 15  1  0  0  0  0
  7 16  1  0  0  0  0
  8  9  2  0  0  0  0
  8 12  1  0  0  0  0
  9 10  1  0  0  0  0
 10 11  2  0  0  0  0
 11 12  1  0  0  0  0
M  END
>  <CHROM.0>
-59.44060869,-63.46583027,-63.16741499,-41.60429294,-58.37864186,-63.60400351
-67.70284906,-174.82617480,-168.49901858

>  <CHROM.1>
168.94384996,-73.98794100,120.72423671,165.02249413,-30.24652167,17.32729010
-15.69353716,2.83757699,0.82683046,-1.54673896

>  <Name>
P131664782

>  <RI>
0

>  <Rbt.Current_Directory>
/home/fstefaniak/projects/zuza/docking/adenine/4TZX

>  <Rbt.Executable>
rbdock ($Id: //depot/dev/client3/rdock/2013.1/src/exe/rbdock.cxx#4 $)

>  <Rbt.Library>
libRbt.so (2013.1, Build901 2013/11/27)

>  <Rbt.Parameter_File>
/home/fstefaniak/progs/rDock//data/scripts/dock_solv.prm

>  <Rbt.Receptor>
4tzx.prm

>  <SCORE>
-59.3647

>  <SCORE.INTER>
-41.1554

>  <SCORE.INTER.CONST>
1

>  <SCORE.INTER.POLAR>
-5.43886

>  <SCORE.INTER.ROT>
4

>  <SCORE.INTER.SOLV>
13.7863

>  <SCORE.INTER.VDW>
-20.1695

>  <SCORE.INTER.norm>
-3.42961

>  <SCORE.INTRA>
2.85449

>  <SCORE.INTRA.DIHEDRAL>
3.31589

>  <SCORE.INTRA.DIHEDRAL.0>
1.04121

>  <SCORE.INTRA.POLAR>
0.184672

>  <SCORE.INTRA.POLAR.0>
-0.184672

>  <SCORE.INTRA.REPUL>
0

>  <SCORE.INTRA.REPUL.0>
0

>  <SCORE.INTRA.SOLV>
1.94166

>  <SCORE.INTRA.SOLV.lig_0>
-15.2379

>  <SCORE.INTRA.VDW>
-0.402164

>  <SCORE.INTRA.VDW.0>
0.0418228

>  <SCORE.INTRA.norm>
0.237874

>  <SCORE.RESTR>
0

>  <SCORE.RESTR.CAVITY>
0

>  <SCORE.RESTR.norm>
0

>  <SCORE.SYSTEM>
-21.0638

>  <SCORE.SYSTEM.CONST>
0

>  <SCORE.SYSTEM.DIHEDRAL>
4.77127

>  <SCORE.SYSTEM.POLAR>
-3.07626

>  <SCORE.SYSTEM.SOLV>
0.0530353

>  <SCORE.SYSTEM.VDW>
-5.39646

>  <SCORE.SYSTEM.norm>
-1.75532

>  <SCORE.heavy>
12

>  <SCORE.norm>
-4.94706

$$$$
P132005043
 OpenBabel12072022113D
libRbt.so/2013.1/901 2013/11/27
 14 14  0  0  0  0  0  0  0  0999 V2000
  -25.9254   12.2219  -15.3105 C   0  0  0  0  0  0  0  0  0  0  0  0
  -26.2211   12.2984  -16.8018 C   0  0  0  0  0  0  0  0  0  0  0  0
  -27.2560   13.3637  -17.1316 C   0  0  0  0  0  0  0  0  0  0  0  0
  -28.5463   13.4488  -16.2763 C   0  0  0  0  0  0  0  0  0  0  0  0
  -28.2547   14.8580  -16.0895 N   0  0  0  0  0  0  0  0  0  0  0  0
  -26.9291   14.8121  -16.6781 C   0  0  0  0  0  0  0  0  0  0  0  0
  -29.1289   15.8902  -15.9393 C   0  0  0  0  0  0  0  0  0  0  0  0
  -29.6566   16.1913  -14.8755 O   0  0  0  0  0  0  0  0  0  0  0  0
  -29.3261   16.5495  -17.1137 O   0  0  0  0  0  0  0  0  0  0  0  0
  -30.2178   17.6707  -17.0563 C   0  0  0  0  0  0  0  0  0  0  0  0
  -30.4164   18.2629  -18.4394 C   0  0  0  0  0  0  0  0  0  0  0  0
  -27.6184   13.4063  -18.5654 N   0  0  0  0  0  0  0  0  0  0  0  0
  -27.4521   14.3049  -19.0160 H   0  0  0  0  0  0  0  0  0  0  0  0
  -28.5891   13.1641  -18.7590 H   0  0  0  0  0  0  0  0  0  0  0  0
  1  2  1  0  0  0  0
  2  3  1  0  0  0  0
  3  4  1  0  0  0  0
  3  6  1  0  0  0  0
  3 12  1  0  0  0  0
  4  5  1  0  0  0  0
  5  6  1  0  0  0  0
  5  7  1  0  0  0  0
  7  8  2  0  0  0  0
  7  9  1  0  0  0  0
  9 10  1  0  0  0  0
 10 11  1  0  0  0  0
 12 13  1  0  0  0  0
 12 14  1  0  0  0  0
M  END
>  <CHROM.0>
-63.25541290,175.53607435,-70.70994088,-43.96443601,-177.83477774,-66.43309272
-167.35766061,-176.41613907,-169.39090446

>  <CHROM.1>
-46.18169605,-121.62323094,82.60629190,-179.06203175,-176.57455064,-28.31670310
14.94478185,-16.70519934,0.17261955,-0.93547782,1.64636913

>  <Name>
P132005043

>  <RI>
0

>  <Rbt.Current_Directory>
/home/fstefaniak/projects/zuza/docking/adenine/4TZX

>  <Rbt.Executable>
rbdock ($Id: //depot/dev/client3/rdock/2013.1/src/exe/rbdock.cxx#4 $)

>  <Rbt.Library>
libRbt.so (2013.1, Build901 2013/11/27)

>  <Rbt.Parameter_File>
/home/fstefaniak/progs/rDock//data/scripts/dock_solv.prm

>  <Rbt.Receptor>
4tzx.prm

>  <SCORE>
-46.5478

>  <SCORE.INTER>
-27.2471

>  <SCORE.INTER.CONST>
1

>  <SCORE.INTER.POLAR>
-3.75822

>  <SCORE.INTER.ROT>
5

>  <SCORE.INTER.SOLV>
10.8194

>  <SCORE.INTER.VDW>
-16.1772

>  <SCORE.INTER.norm>
-2.2706

>  <SCORE.INTRA>
1.0764

>  <SCORE.INTRA.DIHEDRAL>
-0.601856

>  <SCORE.INTRA.DIHEDRAL.0>
3.6382

>  <SCORE.INTRA.POLAR>
0

>  <SCORE.INTRA.POLAR.0>
0

>  <SCORE.INTRA.REPUL>
0

>  <SCORE.INTRA.REPUL.0>
0

>  <SCORE.INTRA.SOLV>
-0.107005

>  <SCORE.INTRA.SOLV.lig_0>
-9.88095

>  <SCORE.INTRA.VDW>
1.43083

>  <SCORE.INTRA.VDW.0>
1.05056

>  <SCORE.INTRA.norm>
0.0897002

>  <SCORE.RESTR>
0

>  <SCORE.RESTR.CAVITY>
0

>  <SCORE.RESTR.norm>
0

>  <SCORE.SYSTEM>
-20.377

>  <SCORE.SYSTEM.CONST>
0

>  <SCORE.SYSTEM.DIHEDRAL>
5.40789

>  <SCORE.SYSTEM.POLAR>
-2.9893

>  <SCORE.SYSTEM.SOLV>
-0.194675

>  <SCORE.SYSTEM.VDW>
-5.35808

>  <SCORE.SYSTEM.norm>
-1.69808

>  <SCORE.heavy>
12

>  <SCORE.norm>
-3.87898

$$$$
P132005043
 OpenBabel12072022113D
libRbt.so/2013.1/901 2013/11/27
 14 14  0  0  0  0  0  0  0  0999 V2000
  -24.8803   12.8180  -16.2848 C   0  0  0  0  0  0  0  0  0  0  0  0
  -26.3543   12.6598  -15.9392 C   0  0  0  0  0  0  0  0  0  0  0  0
  -27.2198   13.7227  -16.5993 C   0  0  0  0  0  0  0  0  0  0  0  0
  -28.6818   13.9075  -16.1176 C   0  0  0  0  0  0  0  0  0  0  0  0
  -28.3848   15.3189  -15.9582 N   0  0  0  0  0  0  0  0  0  0  0  0
  -26.9557   15.1930  -16.1766 C   0  0  0  0  0  0  0  0  0  0  0  0
  -29.2205   16.3820  -16.1120 C   0  0  0  0  0  0  0  0  0  0  0  0
  -29.3208   17.0300  -17.1468 O   0  0  0  0  0  0  0  0  0  0  0  0
  -29.9368   16.6192  -14.9792 O   0  0  0  0  0  0  0  0  0  0  0  0
  -30.8856   17.6914  -15.0553 C   0  0  0  0  0  0  0  0  0  0  0  0
  -31.4974   17.9572  -13.6921 C   0  0  0  0  0  0  0  0  0  0  0  0
  -27.1979   13.6629  -18.0775 N   0  0  0  0  0  0  0  0  0  0  0  0
  -26.2668   13.7151  -18.4880 H   0  0  0  0  0  0  0  0  0  0  0  0
  -27.7531   14.3855  -18.5337 H   0  0  0  0  0  0  0  0  0  0  0  0
  1  2  1  0  0  0  0
  2  3  1  0  0  0  0
  3  4  1  0  0  0  0
  3  6  1  0  0  0  0
  3 12  1  0  0  0  0
  4  5  1  0  0  0  0
  5  6  1  0  0  0  0
  5  7  1  0  0  0  0
  7  8  2  0  0  0  0
  7  9  1  0  0  0  0
  9 10  1  0  0  0  0
 10 11  1  0  0  0  0
 12 13  1  0  0  0  0
 12 14  1  0  0  0  0
M  END
>  <CHROM.0>
-58.31287299,175.48340281,-71.38817829,-42.60533620,-172.61541513,-54.47931048
-171.15316559,60.49279030,-167.85151528

>  <CHROM.1>
-166.63430107,-55.47907376,-95.07999267,-177.76118378,-173.42372242,-28.39224003
15.27540356,-16.02172891,-0.12845586,-0.79396406,1.78611084

>  <Name>
P132005043

>  <RI>
0

>  <Rbt.Current_Directory>
/home/fstefaniak/projects/zuza/docking/adenine/4TZX

>  <Rbt.Executable>
rbdock ($Id: //depot/dev/client3/rdock/2013.1/src/exe/rbdock.cxx#4 $)

>  <Rbt.Library>
libRbt.so (2013.1, Build901 2013/11/27)

>  <Rbt.Parameter_File>
/home/fstefaniak/progs/rDock//data/scripts/dock_solv.prm

>  <Rbt.Receptor>
4tzx.prm

>  <SCORE>
-45.8491

>  <SCORE.INTER>
-25.0972

>  <SCORE.INTER.CONST>
1

>  <SCORE.INTER.POLAR>
-3.72928

>  <SCORE.INTER.ROT>
5

>  <SCORE.INTER.SOLV>
10.7298

>  <SCORE.INTER.VDW>
-14.8105

>  <SCORE.INTER.norm>
-2.09143

>  <SCORE.INTRA>
-1.45058

>  <SCORE.INTRA.DIHEDRAL>
-2.4349

>  <SCORE.INTRA.DIHEDRAL.0>
3.6382

>  <SCORE.INTRA.POLAR>
0

>  <SCORE.INTRA.POLAR.0>
0

>  <SCORE.INTRA.REPUL>
0

>  <SCORE.INTRA.REPUL.0>
0

>  <SCORE.INTRA.SOLV>
0.0936292

>  <SCORE.INTRA.SOLV.lig_0>
-9.88095

>  <SCORE.INTRA.VDW>
-0.279948

>  <SCORE.INTRA.VDW.0>
1.05056

>  <SCORE.INTRA.norm>
-0.120882

>  <SCORE.RESTR>
0

>  <SCORE.RESTR.CAVITY>
0

>  <SCORE.RESTR.norm>
0

>  <SCORE.SYSTEM>
-19.3014

>  <SCORE.SYSTEM.CONST>
0

>  <SCORE.SYSTEM.DIHEDRAL>
5.54518

>  <SCORE.SYSTEM.POLAR>
-3.0709

>  <SCORE.SYSTEM.SOLV>
-0.202598

>  <SCORE.SYSTEM.VDW>
-4.4121

>  <SCORE.SYSTEM.norm>
-1.60845

>  <SCORE.heavy>
12

>  <SCORE.norm>
-3.82076

$$$$
P132005043
 OpenBabel12072022113D
libRbt.so/2013.1/901 2013/11/27
 14 14  0  0  0  0  0  0  0  0999 V2000
  -25.7666   11.8240  -15.7993 C   0  0  0  0  0  0  0  0  0  0  0  0
  -25.5992   13.3363  -15.8449 C   0  0  0  0  0  0  0  0  0  0  0  0
  -26.7791   14.0284  -16.5107 C   0  0  0  0  0  0  0  0  0  0  0  0
  -28.1489   14.0443  -15.7848 C   0  0  0  0  0  0  0  0  0  0  0  0
  -28.1624   15.4828  -15.9745 N   0  0  0  0  0  0  0  0  0  0  0  0
  -26.7958   15.5798  -16.4532 C   0  0  0  0  0  0  0  0  0  0  0  0
  -29.2332   16.3016  -16.1615 C   0  0  0  0  0  0  0  0  0  0  0  0
  -29.5798   16.7371  -17.2528 O   0  0  0  0  0  0  0  0  0  0  0  0
  -29.8736   16.5583  -14.9881 O   0  0  0  0  0  0  0  0  0  0  0  0
  -30.9850   17.4604  -15.0695 C   0  0  0  0  0  0  0  0  0  0  0  0
  -31.3730   17.9515  -13.6870 C   0  0  0  0  0  0  0  0  0  0  0  0
  -26.9791   13.6228  -17.9195 N   0  0  0  0  0  0  0  0  0  0  0  0
  -26.3031   12.9419  -18.2624 H   0  0  0  0  0  0  0  0  0  0  0  0
  -26.9685   14.3962  -18.5830 H   0  0  0  0  0  0  0  0  0  0  0  0
  1  2  1  0  0  0  0
  2  3  1  0  0  0  0
  3  4  1  0  0  0  0
  3  6  1  0  0  0  0
  3 12  1  0  0  0  0
  4  5  1  0  0  0  0
  5  6  1  0  0  0  0
  5  7  1  0  0  0  0
  7  8  2  0  0  0  0
  7  9  1  0  0  0  0
  9 10  1  0  0  0  0
 10 11  1  0  0  0  0
 12 13  1  0  0  0  0
 12 14  1  0  0  0  0
M  END
>  <CHROM.0>
-57.73573312,178.70861958,61.50169192,-43.10207626,-56.14024459,-177.11761914
56.78176008,-170.78384901,-168.23307183

>  <CHROM.1>
69.36004968,-0.35853979,-101.01744391,177.42164101,-164.88703948,-28.29699743
15.25550770,-15.96318967,-0.04161524,-0.78979781,1.85357349

>  <Name>
P132005043

>  <RI>
0

>  <Rbt.Current_Directory>
/home/fstefaniak/projects/zuza/docking/adenine/4TZX

>  <Rbt.Executable>
rbdock ($Id: //depot/dev/client3/rdock/2013.1/src/exe/rbdock.cxx#4 $)

>  <Rbt.Library>
libRbt.so (2013.1, Build901 2013/11/27)

>  <Rbt.Parameter_File>
/home/fstefaniak/progs/rDock//data/scripts/dock_solv.prm

>  <Rbt.Receptor>
4tzx.prm

>  <SCORE>
-45.7758

>  <SCORE.INTER>
-27.3061

>  <SCORE.INTER.CONST>
1

>  <SCORE.INTER.POLAR>
-3.87743

>  <SCORE.INTER.ROT>
5

>  <SCORE.INTER.SOLV>
10.0711

>  <SCORE.INTER.VDW>
-15.5697

>  <SCORE.INTER.norm>
-2.27551

>  <SCORE.INTRA>
0.167107

>  <SCORE.INTRA.DIHEDRAL>
0.403817

>  <SCORE.INTRA.DIHEDRAL.0>
3.6382

>  <SCORE.INTRA.POLAR>
0

>  <SCORE.INTRA.POLAR.0>
0

>  <SCORE.INTRA.REPUL>
0

>  <SCORE.INTRA.REPUL.0>
0

>  <SCORE.INTRA.SOLV>
-0.0520529

>  <SCORE.INTRA.SOLV.lig_0>
-9.88095

>  <SCORE.INTRA.VDW>
-0.00877531

>  <SCORE.INTRA.VDW.0>
1.05056

>  <SCORE.INTRA.norm>
0.0139256

>  <SCORE.RESTR>
0

>  <SCORE.RESTR.CAVITY>
0

>  <SCORE.RESTR.norm>
0

>  <SCORE.SYSTEM>
-18.6369

>  <SCORE.SYSTEM.CONST>
0

>  <SCORE.SYSTEM.DIHEDRAL>
4.5862

>  <SCORE.SYSTEM.POLAR>
-3.05479

>  <SCORE.SYSTEM.SOLV>
-0.19054

>  <SCORE.SYSTEM.VDW>
-3.70715

>  <SCORE.SYSTEM.norm>
-1.55307

>  <SCORE.heavy>
12

>  <SCORE.norm>
-3.81465

$$$$
P132137500
 OpenBabel12072022113D
libRbt.so/2013.1/901 2013/11/27
 17 18  0  0  0  0  0  0  0  0999 V2000
  -27.2591   12.1247  -14.9780 C   0  0  0  0  0  0  0  0  0  0  0  0
  -26.4625   12.1171  -16.3036 C   0  0  2  0  0  0  0  0  0  0  0  0
  -25.6400   10.8117  -16.3696 C   0  0  0  0  0  0  0  0  0  0  0  0
  -24.1735   11.2003  -16.1929 C   0  0  0  0  0  0  0  0  0  0  0  0
  -24.0932   12.6353  -16.5485 N   0  3  0  0  0  0  0  0  0  0  0  0
  -23.3016   13.1168  -16.1095 H   0  0  0  0  0  0  0  0  0  0  0  0
  -23.8068   12.7193  -17.5768 H   0  0  0  0  0  0  0  0  0  0  0  0
  -25.4224   13.2488  -16.2406 C   0  0  0  0  0  0  0  0  0  0  0  0
  -27.4957   12.2793  -17.4763 C   0  0  0  0  0  0  0  0  0  0  0  0
  -27.6283   11.3973  -18.3286 O   0  0  0  0  0  0  0  0  0  0  0  0
  -28.2731   13.4065  -17.6058 N   0  0  0  0  0  0  0  0  0  0  0  0
  -28.3303   14.4661  -16.6277 C   0  0  1  0  0  0  0  0  0  0  0  0
  -27.4421   15.7047  -16.5232 C   0  0  0  0  0  0  0  0  0  0  0  0
  -28.7061   16.3567  -15.8075 C   0  0  1  0  0  0  0  0  0  0  0  0
  -29.5075   15.4857  -16.8035 C   0  0  0  0  0  0  0  0  0  0  0  0
  -28.9498   15.9148  -14.5042 O   0  5  0  0  0  0  0  0  0  0  0  0
  -28.9017   13.3944  -18.4024 H   0  0  0  0  0  0  0  0  0  0  0  0
  2  1  1  1  0  0  0
  2  3  1  0  0  0  0
  2  8  1  0  0  0  0
  2  9  1  0  0  0  0
  3  4  1  0  0  0  0
  4  5  1  0  0  0  0
  5  6  1  0  0  0  0
  5  7  1  0  0  0  0
  5  8  1  0  0  0  0
  9 10  2  0  0  0  0
  9 11  1  0  0  0  0
 11 17  1  0  0  0  0
 12 11  1  6  0  0  0
 12 13  1  0  0  0  0
 12 15  1  0  0  0  0
 13 14  1  0  0  0  0
 14 15  1  0  0  0  0
 14 16  1  1  0  0  0
M  CHG  2   5   1  16  -1
M  END
>  <CHROM.0>
-59.40185411,-66.89549554,-63.79333081,-43.41045657,58.20001477,-61.99279778
-67.64422406,-174.24014870,-168.86439728

>  <CHROM.1>
-118.13916146,88.47531969,-27.08465654,13.36583458,-16.44977495,-0.75971059
-0.44947689,0.57877886

>  <Name>
P132137500

>  <RI>
0

>  <Rbt.Current_Directory>
/home/fstefaniak/projects/zuza/docking/adenine/4TZX

>  <Rbt.Executable>
rbdock ($Id: //depot/dev/client3/rdock/2013.1/src/exe/rbdock.cxx#4 $)

>  <Rbt.Library>
libRbt.so (2013.1, Build901 2013/11/27)

>  <Rbt.Parameter_File>
/home/fstefaniak/progs/rDock//data/scripts/dock_solv.prm

>  <Rbt.Receptor>
4tzx.prm

>  <SCORE>
-37.8956

>  <SCORE.INTER>
-14.1524

>  <SCORE.INTER.CONST>
1

>  <SCORE.INTER.POLAR>
-2.79337

>  <SCORE.INTER.ROT>
2

>  <SCORE.INTER.SOLV>
23.631

>  <SCORE.INTER.VDW>
-12.934

>  <SCORE.INTER.norm>
-1.01089

>  <SCORE.INTRA>
-4.42726

>  <SCORE.INTRA.DIHEDRAL>
0.360822

>  <SCORE.INTRA.DIHEDRAL.0>
1.03468

>  <SCORE.INTRA.POLAR>
0

>  <SCORE.INTRA.POLAR.0>
0

>  <SCORE.INTRA.REPUL>
0

>  <SCORE.INTRA.REPUL.0>
0

>  <SCORE.INTRA.SOLV>
-10.024

>  <SCORE.INTRA.SOLV.lig_0>
-45.2568

>  <SCORE.INTRA.VDW>
0.404346

>  <SCORE.INTRA.VDW.0>
-0.666104

>  <SCORE.INTRA.norm>
-0.316233

>  <SCORE.RESTR>
1.00089

>  <SCORE.RESTR.CAVITY>
1.00089

>  <SCORE.RESTR.norm>
0.0714922

>  <SCORE.SYSTEM>
-20.3168

>  <SCORE.SYSTEM.CONST>
0

>  <SCORE.SYSTEM.DIHEDRAL>
4.64896

>  <SCORE.SYSTEM.POLAR>
-3.04934

>  <SCORE.SYSTEM.SOLV>
-0.168877

>  <SCORE.SYSTEM.VDW>
-4.87344

>  <SCORE.SYSTEM.norm>
-1.4512

>  <SCORE.heavy>
14

>  <SCORE.norm>
-2.70683

$$$$
P132137500
 OpenBabel12072022113D
libRbt.so/2013.1/901 2013/11/27
 17 18  0  0  0  0  0  0  0  0999 V2000
  -27.2606   12.1001  -14.9910 C   0  0  0  0  0  0  0  0  0  0  0  0
  -26.4549   12.1032  -16.3112 C   0  0  2  0  0  0  0  0  0  0  0  0
  -25.6219   10.8044  -16.3758 C   0  0  0  0  0  0  0  0  0  0  0  0
  -24.1597   11.2038  -16.1877 C   0  0  0  0  0  0  0  0  0  0  0  0
  -24.0881   12.6406  -16.5380 N   0  3  0  0  0  0  0  0  0  0  0  0
  -23.3033   13.1268  -16.0921 H   0  0  0  0  0  0  0  0  0  0  0  0
  -23.7953   12.7302  -17.5641 H   0  0  0  0  0  0  0  0  0  0  0  0
  -25.4241   13.2427  -16.2373 C   0  0  0  0  0  0  0  0  0  0  0  0
  -27.4812   12.2613  -17.4904 C   0  0  0  0  0  0  0  0  0  0  0  0
  -27.6035   11.3797  -18.3447 O   0  0  0  0  0  0  0  0  0  0  0  0
  -28.2640   13.3843  -17.6235 N   0  0  0  0  0  0  0  0  0  0  0  0
  -28.3334   14.4423  -16.6445 C   0  0  1  0  0  0  0  0  0  0  0  0
  -27.4506   15.6840  -16.5305 C   0  0  0  0  0  0  0  0  0  0  0  0
  -28.7231   16.3304  -15.8248 C   0  0  1  0  0  0  0  0  0  0  0  0
  -29.5128   15.4580  -16.8290 C   0  0  0  0  0  0  0  0  0  0  0  0
  -28.9764   15.8857  -14.5244 O   0  5  0  0  0  0  0  0  0  0  0  0
  -28.8873   13.3698  -18.4243 H   0  0  0  0  0  0  0  0  0  0  0  0
  2  1  1  1  0  0  0
  2  3  1  0  0  0  0
  2  8  1  0  0  0  0
  2  9  1  0  0  0  0
  3  4  1  0  0  0  0
  4  5  1  0  0  0  0
  5  6  1  0  0  0  0
  5  7  1  0  0  0  0
  5  8  1  0  0  0  0
  9 10  2  0  0  0  0
  9 11  1  0  0  0  0
 11 17  1  0  0  0  0
 12 11  1  6  0  0  0
 12 13  1  0  0  0  0
 12 15  1  0  0  0  0
 13 14  1  0  0  0  0
 14 15  1  0  0  0  0
 14 16  1  1  0  0  0
M  CHG  2   5   1  16  -1
M  END
>  <CHROM.0>
-60.82587676,-61.16775435,-44.81516784,-43.19753785,-56.35987191,-64.10922196
-69.82057587,58.31693968,-168.42623328

>  <CHROM.1>
-117.96468994,88.31306679,-27.08260413,13.34963976,-16.45986545,-0.75098431
-0.45118398,0.58310933

>  <Name>
P132137500

>  <RI>
0

>  <Rbt.Current_Directory>
/home/fstefaniak/projects/zuza/docking/adenine/4TZX

>  <Rbt.Executable>
rbdock ($Id: //depot/dev/client3/rdock/2013.1/src/exe/rbdock.cxx#4 $)

>  <Rbt.Library>
libRbt.so (2013.1, Build901 2013/11/27)

>  <Rbt.Parameter_File>
/home/fstefaniak/progs/rDock//data/scripts/dock_solv.prm

>  <Rbt.Receptor>
4tzx.prm

>  <SCORE>
-37.3556

>  <SCORE.INTER>
-14.1384

>  <SCORE.INTER.CONST>
1

>  <SCORE.INTER.POLAR>
-2.79174

>  <SCORE.INTER.ROT>
2

>  <SCORE.INTER.SOLV>
23.587

>  <SCORE.INTER.VDW>
-12.9155

>  <SCORE.INTER.norm>
-1.00989

>  <SCORE.INTRA>
-4.42405

>  <SCORE.INTRA.DIHEDRAL>
0.363094

>  <SCORE.INTRA.DIHEDRAL.0>
1.03468

>  <SCORE.INTRA.POLAR>
0

>  <SCORE.INTRA.POLAR.0>
0

>  <SCORE.INTRA.REPUL>
0

>  <SCORE.INTRA.REPUL.0>
0

>  <SCORE.INTRA.SOLV>
-10.0261

>  <SCORE.INTRA.SOLV.lig_0>
-45.2568

>  <SCORE.INTRA.VDW>
0.407449

>  <SCORE.INTRA.VDW.0>
-0.666104

>  <SCORE.INTRA.norm>
-0.316003

>  <SCORE.RESTR>
1.00782

>  <SCORE.RESTR.CAVITY>
1.00782

>  <SCORE.RESTR.norm>
0.071987

>  <SCORE.SYSTEM>
-19.8009

>  <SCORE.SYSTEM.CONST>
0

>  <SCORE.SYSTEM.DIHEDRAL>
5.57071

>  <SCORE.SYSTEM.POLAR>
-3.18303

>  <SCORE.SYSTEM.SOLV>
0.0277069

>  <SCORE.SYSTEM.VDW>
-4.45664

>  <SCORE.SYSTEM.norm>
-1.41435

>  <SCORE.heavy>
14

>  <SCORE.norm>
-2.66826

$$$$
P132137500
 OpenBabel12072022113D
libRbt.so/2013.1/901 2013/11/27
 17 18  0  0  0  0  0  0  0  0999 V2000
  -27.2818   12.0360  -14.9780 C   0  0  0  0  0  0  0  0  0  0  0  0
  -26.4740   12.0875  -16.2958 C   0  0  2  0  0  0  0  0  0  0  0  0
  -25.6190   10.8051  -16.3929 C   0  0  0  0  0  0  0  0  0  0  0  0
  -24.1641   11.2240  -16.1912 C   0  0  0  0  0  0  0  0  0  0  0  0
  -24.1162   12.6705  -16.5033 N   0  3  0  0  0  0  0  0  0  0  0  0
  -23.3405   13.1579  -16.0429 H   0  0  0  0  0  0  0  0  0  0  0  0
  -23.8232   12.7922  -17.5260 H   0  0  0  0  0  0  0  0  0  0  0  0
  -25.4626   13.2418  -16.1896 C   0  0  0  0  0  0  0  0  0  0  0  0
  -27.5008   12.2594  -17.4727 C   0  0  0  0  0  0  0  0  0  0  0  0
  -27.6202   11.3899  -18.3397 O   0  0  0  0  0  0  0  0  0  0  0  0
  -28.2871   13.3818  -17.5895 N   0  0  0  0  0  0  0  0  0  0  0  0
  -28.3598   14.4253  -16.5953 C   0  0  1  0  0  0  0  0  0  0  0  0
  -27.4657   15.6553  -16.4489 C   0  0  0  0  0  0  0  0  0  0  0  0
  -28.7415   16.3046  -15.7522 C   0  0  1  0  0  0  0  0  0  0  0  0
  -29.5254   15.4564  -16.7813 C   0  0  0  0  0  0  0  0  0  0  0  0
  -29.0190   15.8427  -14.4627 O   0  5  0  0  0  0  0  0  0  0  0  0
  -28.9103   13.3769  -18.3905 H   0  0  0  0  0  0  0  0  0  0  0  0
  2  1  1  1  0  0  0
  2  3  1  0  0  0  0
  2  8  1  0  0  0  0
  2  9  1  0  0  0  0
  3  4  1  0  0  0  0
  4  5  1  0  0  0  0
  5  6  1  0  0  0  0
  5  7  1  0  0  0  0
  5  8  1  0  0  0  0
  9 10  2  0  0  0  0
  9 11  1  0  0  0  0
 11 17  1  0  0  0  0
 12 11  1  6  0  0  0
 12 13  1  0  0  0  0
 12 15  1  0  0  0  0
 13 14  1  0  0  0  0
 14 15  1  0  0  0  0
 14 16  1  1  0  0  0
M  CHG  2   5   1  16  -1
M  END
>  <CHROM.0>
-60.28661884,-171.35227903,-60.91821215,-43.59129773,-55.00993191,-59.81038591
-66.76961226,-58.95546198,-169.69339132

>  <CHROM.1>
-116.91732375,87.14579974,-27.10311173,13.33997954,-16.42695002,-0.75053448
-0.44509919,0.59302053

>  <Name>
P132137500

>  <RI>
0

>  <Rbt.Current_Directory>
/home/fstefaniak/projects/zuza/docking/adenine/4TZX

>  <Rbt.Executable>
rbdock ($Id: //depot/dev/client3/rdock/2013.1/src/exe/rbdock.cxx#4 $)

>  <Rbt.Library>
libRbt.so (2013.1, Build901 2013/11/27)

>  <Rbt.Parameter_File>
/home/fstefaniak/progs/rDock//data/scripts/dock_solv.prm

>  <Rbt.Receptor>
4tzx.prm

>  <SCORE>
-37.2014

>  <SCORE.INTER>
-12.9933

>  <SCORE.INTER.CONST>
1

>  <SCORE.INTER.POLAR>
-2.72496

>  <SCORE.INTER.ROT>
2

>  <SCORE.INTER.SOLV>
23.7888

>  <SCORE.INTER.VDW>
-12.4419

>  <SCORE.INTER.norm>
-0.92809

>  <SCORE.INTRA>
-4.3817

>  <SCORE.INTRA.DIHEDRAL>
0.380144

>  <SCORE.INTRA.DIHEDRAL.0>
1.03468

>  <SCORE.INTRA.POLAR>
0

>  <SCORE.INTRA.POLAR.0>
0

>  <SCORE.INTRA.REPUL>
0

>  <SCORE.INTRA.REPUL.0>
0

>  <SCORE.INTRA.SOLV>
-10.0407

>  <SCORE.INTRA.SOLV.lig_0>
-45.2568

>  <SCORE.INTRA.VDW>
0.448565

>  <SCORE.INTRA.VDW.0>
-0.666104

>  <SCORE.INTRA.norm>
-0.312978

>  <SCORE.RESTR>
0.989326

>  <SCORE.RESTR.CAVITY>
0.989326

>  <SCORE.RESTR.norm>
0.0706662

>  <SCORE.SYSTEM>
-20.8158

>  <SCORE.SYSTEM.CONST>
0

>  <SCORE.SYSTEM.DIHEDRAL>
4.49181

>  <SCORE.SYSTEM.POLAR>
-3.03614

>  <SCORE.SYSTEM.SOLV>
0.167264

>  <SCORE.SYSTEM.VDW>
-5.30975

>  <SCORE.SYSTEM.norm>
-1.48684

>  <SCORE.heavy>
14

>  <SCORE.norm>
-2.65725

$$$$
P132150445
 OpenBabel12072022113D
libRbt.so/2013.1/901 2013/11/27
 15 15  0  0  0  0  0  0  0  0999 V2000
  -29.4305   17.4365  -16.9843 C   0  0  0  0  0  0  0  0  0  0  0  0
  -29.7244   16.7805  -15.6141 C   0  0  0  0  0  0  0  0  0  0  0  0
  -31.1840   17.0776  -15.2343 C   0  0  0  0  0  0  0  0  0  0  0  0
  -29.5057   15.2297  -15.7682 C   0  0  0  0  0  0  0  0  0  0  0  0
  -30.4541   14.4460  -15.6293 O   0  0  0  0  0  0  0  0  0  0  0  0
  -28.2556   14.7255  -16.0750 N   0  0  0  0  0  0  0  0  0  0  0  0
  -27.0205   15.4396  -16.3658 C   0  0  0  0  0  0  0  0  0  0  0  0
  -26.1335   14.4019  -17.0427 C   0  0  0  0  0  0  0  0  0  0  0  0
  -26.5659   13.1058  -16.3730 C   0  0  0  0  0  0  0  0  0  0  0  0
  -28.0688   13.2906  -16.2281 C   0  0  0  0  0  0  0  0  0  0  0  0
  -28.7391   17.2721  -14.6010 N   0  0  0  0  0  0  0  0  0  0  0  0
  -29.3429   17.4429  -13.2907 N   0  0  0  0  0  0  0  0  0  0  0  0
  -28.3785   18.1680  -14.9548 H   0  0  0  0  0  0  0  0  0  0  0  0
  -29.5922   18.4244  -13.1324 H   0  0  0  0  0  0  0  0  0  0  0  0
  -28.6739   17.2252  -12.5459 H   0  0  0  0  0  0  0  0  0  0  0  0
  1  2  1  0  0  0  0
  2  3  1  0  0  0  0
  2  4  1  0  0  0  0
  2 11  1  0  0  0  0
  4  5  2  0  0  0  0
  4  6  1  0  0  0  0
  6  7  1  0  0  0  0
  6 10  1  0  0  0  0
  7  8  1  0  0  0  0
  8  9  1  0  0  0  0
  9 10  1  0  0  0  0
 11 12  1  0  0  0  0
 11 13  1  0  0  0  0
 12 14  1  0  0  0  0
 12 15  1  0  0  0  0
M  END
>  <CHROM.0>
-57.90513738,-60.93123225,-62.39917377,-44.05289420,-177.89957911,-175.07777089
-67.69875660,-61.01671032,-168.91498188

>  <CHROM.1>
-115.91437049,143.49496903,-98.38062849,-28.72279690,15.59252638,-15.73256938
-2.25587470,-0.13383662,-2.78202935

>  <Name>
P132150445

>  <RI>
0

>  <Rbt.Current_Directory>
/home/fstefaniak/projects/zuza/docking/adenine/4TZX

>  <Rbt.Executable>
rbdock ($Id: //depot/dev/client3/rdock/2013.1/src/exe/rbdock.cxx#4 $)

>  <Rbt.Library>
libRbt.so (2013.1, Build901 2013/11/27)

>  <Rbt.Parameter_File>
/home/fstefaniak/progs/rDock//data/scripts/dock_solv.prm

>  <Rbt.Receptor>
4tzx.prm

>  <SCORE>
-44.0333

>  <SCORE.INTER>
-25.8621

>  <SCORE.INTER.CONST>
1

>  <SCORE.INTER.POLAR>
-3.62934

>  <SCORE.INTER.ROT>
3

>  <SCORE.INTER.SOLV>
13.504

>  <SCORE.INTER.VDW>
-15.245

>  <SCORE.INTER.norm>
-2.15518

>  <SCORE.INTRA>
2.90496

>  <SCORE.INTRA.DIHEDRAL>
2.75213

>  <SCORE.INTRA.DIHEDRAL.0>
0.310745

>  <SCORE.INTRA.POLAR>
0

>  <SCORE.INTRA.POLAR.0>
0

>  <SCORE.INTRA.REPUL>
0

>  <SCORE.INTRA.REPUL.0>
0

>  <SCORE.INTRA.SOLV>
0.0888206

>  <SCORE.INTRA.SOLV.lig_0>
-12.8377

>  <SCORE.INTRA.VDW>
1.48449

>  <SCORE.INTRA.VDW.0>
1.55732

>  <SCORE.INTRA.norm>
0.24208

>  <SCORE.RESTR>
0

>  <SCORE.RESTR.CAVITY>
0

>  <SCORE.RESTR.norm>
0

>  <SCORE.SYSTEM>
-21.0762

>  <SCORE.SYSTEM.CONST>
0

>  <SCORE.SYSTEM.DIHEDRAL>
4.26802

>  <SCORE.SYSTEM.POLAR>
-3.04276

>  <SCORE.SYSTEM.SOLV>
-0.113346

>  <SCORE.SYSTEM.VDW>
-5.29312

>  <SCORE.SYSTEM.norm>
-1.75635

>  <SCORE.heavy>
12

>  <SCORE.norm>
-3.66944

$$$$
P132150445
 OpenBabel12072022113D
libRbt.so/2013.1/901 2013/11/27
 15 15  0  0  0  0  0  0  0  0999 V2000
  -29.5607   17.5305  -17.1394 C   0  0  0  0  0  0  0  0  0  0  0  0
  -29.4907   16.9896  -15.6915 C   0  0  0  0  0  0  0  0  0  0  0  0
  -30.7562   17.4366  -14.9421 C   0  0  0  0  0  0  0  0  0  0  0  0
  -29.4288   15.4189  -15.7689 C   0  0  0  0  0  0  0  0  0  0  0  0
  -30.4382   14.7397  -15.5393 O   0  0  0  0  0  0  0  0  0  0  0  0
  -28.2509   14.7801  -16.1085 N   0  0  0  0  0  0  0  0  0  0  0  0
  -26.9714   15.3543  -16.4999 C   0  0  0  0  0  0  0  0  0  0  0  0
  -26.2252   14.2017  -17.1606 C   0  0  0  0  0  0  0  0  0  0  0  0
  -26.7412   12.9900  -16.3985 C   0  0  0  0  0  0  0  0  0  0  0  0
  -28.2096   13.3279  -16.1899 C   0  0  0  0  0  0  0  0  0  0  0  0
  -28.2253   17.4550  -15.0428 N   0  0  0  0  0  0  0  0  0  0  0  0
  -28.3808   17.6349  -13.6096 N   0  0  0  0  0  0  0  0  0  0  0  0
  -27.9744   18.3437  -15.4957 H   0  0  0  0  0  0  0  0  0  0  0  0
  -28.9626   16.8904  -13.2125 H   0  0  0  0  0  0  0  0  0  0  0  0
  -28.8912   18.4982  -13.4001 H   0  0  0  0  0  0  0  0  0  0  0  0
  1  2  1  0  0  0  0
  2  3  1  0  0  0  0
  2  4  1  0  0  0  0
  2 11  1  0  0  0  0
  4  5  2  0  0  0  0
  4  6  1  0  0  0  0
  6  7  1  0  0  0  0
  6 10  1  0  0  0  0
  7  8  1  0  0  0  0
  8  9  1  0  0  0  0
  9 10  1  0  0  0  0
 11 12  1  0  0  0  0
 11 13  1  0  0  0  0
 12 14  1  0  0  0  0
 12 15  1  0  0  0  0
M  END
>  <CHROM.0>
-57.36693528,-60.45878101,-68.97902211,-42.40034032,-52.71546258,-173.24492352
-66.03863694,-55.32588011,-168.96506158

>  <CHROM.1>
-102.24294330,149.08605475,39.32790269,-28.57687418,15.69247521,-15.81084989
-2.14108127,-0.09246617,-2.80933918

>  <Name>
P132150445

>  <RI>
0

>  <Rbt.Current_Directory>
/home/fstefaniak/projects/zuza/docking/adenine/4TZX

>  <Rbt.Executable>
rbdock ($Id: //depot/dev/client3/rdock/2013.1/src/exe/rbdock.cxx#4 $)

>  <Rbt.Library>
libRbt.so (2013.1, Build901 2013/11/27)

>  <Rbt.Parameter_File>
/home/fstefaniak/progs/rDock//data/scripts/dock_solv.prm

>  <Rbt.Receptor>
4tzx.prm

>  <SCORE>
-42.6545

>  <SCORE.INTER>
-24.7652

>  <SCORE.INTER.CONST>
1

>  <SCORE.INTER.POLAR>
-3.20525

>  <SCORE.INTER.ROT>
3

>  <SCORE.INTER.SOLV>
12.7497

>  <SCORE.INTER.VDW>
-15.6759

>  <SCORE.INTER.norm>
-2.06377

>  <SCORE.INTRA>
2.88655

>  <SCORE.INTRA.DIHEDRAL>
2.2901

>  <SCORE.INTRA.DIHEDRAL.0>
0.310745

>  <SCORE.INTRA.POLAR>
0

>  <SCORE.INTRA.POLAR.0>
0

>  <SCORE.INTRA.REPUL>
0

>  <SCORE.INTRA.REPUL.0>
0

>  <SCORE.INTRA.SOLV>
0.429149

>  <SCORE.INTRA.SOLV.lig_0>
-12.8377

>  <SCORE.INTRA.VDW>
1.52693

>  <SCORE.INTRA.VDW.0>
1.55732

>  <SCORE.INTRA.norm>
0.240546

>  <SCORE.RESTR>
0

>  <SCORE.RESTR.CAVITY>
0

>  <SCORE.RESTR.norm>
0

>  <SCORE.SYSTEM>
-20.7758

>  <SCORE.SYSTEM.CONST>
0

>  <SCORE.SYSTEM.DIHEDRAL>
5.1465

>  <SCORE.SYSTEM.POLAR>
-3.09624

>  <SCORE.SYSTEM.SOLV>
0.0847257

>  <SCORE.SYSTEM.VDW>
-5.27345

>  <SCORE.SYSTEM.norm>
-1.73131

>  <SCORE.heavy>
12

>  <SCORE.norm>
-3.55454

$$$$
P132150445
 OpenBabel12072022113D
libRbt.so/2013.1/901 2013/11/27
 15 15  0  0  0  0  0  0  0  0999 V2000
  -29.4432   17.4186  -17.0036 C   0  0  0  0  0  0  0  0  0  0  0  0
  -29.6749   16.7472  -15.6290 C   0  0  0  0  0  0  0  0  0  0  0  0
  -31.1386   16.9725  -15.2168 C   0  0  0  0  0  0  0  0  0  0  0  0
  -29.3847   15.2090  -15.7916 C   0  0  0  0  0  0  0  0  0  0  0  0
  -30.2994   14.3828  -15.6757 O   0  0  0  0  0  0  0  0  0  0  0  0
  -28.1083   14.7636  -16.0803 N   0  0  0  0  0  0  0  0  0  0  0  0
  -26.9013   15.5344  -16.3435 C   0  0  0  0  0  0  0  0  0  0  0  0
  -25.9574   14.5431  -17.0129 C   0  0  0  0  0  0  0  0  0  0  0  0
  -26.3431   13.2233  -16.3614 C   0  0  0  0  0  0  0  0  0  0  0  0
  -27.8550   13.3399  -16.2416 C   0  0  0  0  0  0  0  0  0  0  0  0
  -28.6928   17.2846  -14.6364 N   0  0  0  0  0  0  0  0  0  0  0  0
  -29.2844   17.4544  -13.3204 N   0  0  0  0  0  0  0  0  0  0  0  0
  -28.3662   18.1866  -15.0073 H   0  0  0  0  0  0  0  0  0  0  0  0
  -29.6221   18.4142  -13.1965 H   0  0  0  0  0  0  0  0  0  0  0  0
  -28.5835   17.3323  -12.5831 H   0  0  0  0  0  0  0  0  0  0  0  0
  1  2  1  0  0  0  0
  2  3  1  0  0  0  0
  2  4  1  0  0  0  0
  2 11  1  0  0  0  0
  4  5  2  0  0  0  0
  4  6  1  0  0  0  0
  6  7  1  0  0  0  0
  6 10  1  0  0  0  0
  7  8  1  0  0  0  0
  8  9  1  0  0  0  0
  9 10  1  0  0  0  0
 11 12  1  0  0  0  0
 11 13  1  0  0  0  0
 12 14  1  0  0  0  0
 12 15  1  0  0  0  0
M  END
>  <CHROM.0>
-61.50874693,-64.13213197,-70.52647054,-43.32056571,-179.76153682,59.23211234
-170.55312414,-58.41403717,-168.84025032

>  <CHROM.1>
-113.62385094,142.11278511,-94.46936278,-28.61252061,15.61076072,-15.74230621
-2.29700030,-0.11437899,-2.76821941

>  <Name>
P132150445

>  <RI>
0

>  <Rbt.Current_Directory>
/home/fstefaniak/projects/zuza/docking/adenine/4TZX

>  <Rbt.Executable>
rbdock ($Id: //depot/dev/client3/rdock/2013.1/src/exe/rbdock.cxx#4 $)

>  <Rbt.Library>
libRbt.so (2013.1, Build901 2013/11/27)

>  <Rbt.Parameter_File>
/home/fstefaniak/progs/rDock//data/scripts/dock_solv.prm

>  <Rbt.Receptor>
4tzx.prm

>  <SCORE>
-42.4019

>  <SCORE.INTER>
-25.6523

>  <SCORE.INTER.CONST>
1

>  <SCORE.INTER.POLAR>
-3.4817

>  <SCORE.INTER.ROT>
3

>  <SCORE.INTER.SOLV>
13.23

>  <SCORE.INTER.VDW>
-15.5059

>  <SCORE.INTER.norm>
-2.13769

>  <SCORE.INTRA>
2.90126

>  <SCORE.INTRA.DIHEDRAL>
2.71554

>  <SCORE.INTRA.DIHEDRAL.0>
0.310745

>  <SCORE.INTRA.POLAR>
0

>  <SCORE.INTRA.POLAR.0>
0

>  <SCORE.INTRA.REPUL>
0

>  <SCORE.INTRA.REPUL.0>
0

>  <SCORE.INTRA.SOLV>
0.106146

>  <SCORE.INTRA.SOLV.lig_0>
-12.8377

>  <SCORE.INTRA.VDW>
1.49042

>  <SCORE.INTRA.VDW.0>
1.55732

>  <SCORE.INTRA.norm>
0.241772

>  <SCORE.RESTR>
0

>  <SCORE.RESTR.CAVITY>
0

>  <SCORE.RESTR.norm>
0

>  <SCORE.SYSTEM>
-19.6509

>  <SCORE.SYSTEM.CONST>
0

>  <SCORE.SYSTEM.DIHEDRAL>
4.92387

>  <SCORE.SYSTEM.POLAR>
-3.0291

>  <SCORE.SYSTEM.SOLV>
-0.162646

>  <SCORE.SYSTEM.VDW>
-4.59066

>  <SCORE.SYSTEM.norm>
-1.63757

>  <SCORE.heavy>
12

>  <SCORE.norm>
-3.53349

$$$$
P132826030
 OpenBabel12072022113D
libRbt.so/2013.1/901 2013/11/27
 17 16  0  0  0  0  0  0  0  0999 V2000
  -30.9500   18.4191  -16.5194 C   0  0  0  0  0  0  0  0  0  0  0  0
  -30.5147   17.7954  -15.2765 N   0  0  0  0  0  0  0  0  0  0  0  0
  -31.4555   17.9004  -14.1670 C   0  0  0  0  0  0  0  0  0  0  0  0
  -29.4197   16.9642  -15.1380 C   0  0  0  0  0  0  0  0  0  0  0  0
  -29.1758   16.3413  -14.0961 O   0  0  0  0  0  0  0  0  0  0  0  0
  -28.5354   16.6682  -16.3396 C   0  0  0  0  0  0  0  0  0  0  0  0
  -27.6709   15.5097  -16.0550 N   0  0  0  0  0  0  0  0  0  0  0  0
  -26.3666   15.4349  -16.4017 C   0  0  0  0  0  0  0  0  0  0  0  0
  -25.7011   16.4501  -17.0343 N   0  3  0  0  0  0  0  0  0  0  0  0
  -26.0340   17.4273  -16.9866 H   0  0  0  0  0  0  0  0  0  0  0  0
  -24.3759   16.2457  -17.4563 N   0  0  0  0  0  0  0  0  0  0  0  0
  -25.6894   14.3083  -16.1185 N   0  0  0  0  0  0  0  0  0  0  0  0
  -28.0811   14.6990  -15.6148 H   0  0  0  0  0  0  0  0  0  0  0  0
  -24.0101   17.1271  -17.8369 H   0  0  0  0  0  0  0  0  0  0  0  0
  -23.8004   16.0345  -16.6305 H   0  0  0  0  0  0  0  0  0  0  0  0
  -26.0859   13.5182  -15.6343 H   0  0  0  0  0  0  0  0  0  0  0  0
  -24.6901   14.3291  -16.2931 H   0  0  0  0  0  0  0  0  0  0  0  0
  1  2  1  0  0  0  0
  2  3  1  0  0  0  0
  2  4  1  0  0  0  0
  4  5  2  0  0  0  0
  4  6  1  0  0  0  0
  6  7  1  0  0  0  0
  7  8  1  0  0  0  0
  7 13  1  0  0  0  0
  8  9  2  0  0  0  0
  8 12  1  0  0  0  0
  9 10  1  0  0  0  0
  9 11  1  0  0  0  0
 11 14  1  0  0  0  0
 11 15  1  0  0  0  0
 12 16  1  0  0  0  0
 12 17  1  0  0  0  0
M  CHG  1   9   1
M  END
>  <CHROM.0>
-61.40941059,-169.74073057,-65.43942124,-43.99452312,64.08618651,-61.85945705
-62.96354173,-63.66193883,-168.71764047

>  <CHROM.1>
-165.05860204,-138.49963193,-175.37933379,-28.12438992,16.53690427,-15.87031077
-3.08270615,-0.47268234,2.37830070

>  <Name>
P132826030

>  <RI>
0

>  <Rbt.Current_Directory>
/home/fstefaniak/projects/zuza/docking/adenine/4TZX

>  <Rbt.Executable>
rbdock ($Id: //depot/dev/client3/rdock/2013.1/src/exe/rbdock.cxx#4 $)

>  <Rbt.Library>
libRbt.so (2013.1, Build901 2013/11/27)

>  <Rbt.Parameter_File>
/home/fstefaniak/progs/rDock//data/scripts/dock_solv.prm

>  <Rbt.Receptor>
4tzx.prm

>  <SCORE>
-55.7326

>  <SCORE.INTER>
-37.4625

>  <SCORE.INTER.CONST>
1

>  <SCORE.INTER.POLAR>
-5.34445

>  <SCORE.INTER.ROT>
3

>  <SCORE.INTER.SOLV>
17.9492

>  <SCORE.INTER.VDW>
-18.7432

>  <SCORE.INTER.norm>
-3.40568

>  <SCORE.INTRA>
1.68347

>  <SCORE.INTRA.DIHEDRAL>
0.292934

>  <SCORE.INTRA.DIHEDRAL.0>
4.37463

>  <SCORE.INTRA.POLAR>
0.540084

>  <SCORE.INTRA.POLAR.0>
-0.57776

>  <SCORE.INTRA.REPUL>
0

>  <SCORE.INTRA.REPUL.0>
0

>  <SCORE.INTRA.SOLV>
-1.7079

>  <SCORE.INTRA.SOLV.lig_0>
-32.5569

>  <SCORE.INTRA.VDW>
0.554669

>  <SCORE.INTRA.VDW.0>
-0.906106

>  <SCORE.INTRA.norm>
0.153043

>  <SCORE.RESTR>
0

>  <SCORE.RESTR.CAVITY>
0

>  <SCORE.RESTR.norm>
0

>  <SCORE.SYSTEM>
-19.9536

>  <SCORE.SYSTEM.CONST>
0

>  <SCORE.SYSTEM.DIHEDRAL>
4.67441

>  <SCORE.SYSTEM.POLAR>
-3.02211

>  <SCORE.SYSTEM.SOLV>
-0.0682082

>  <SCORE.SYSTEM.VDW>
-4.76408

>  <SCORE.SYSTEM.norm>
-1.81396

>  <SCORE.heavy>
11

>  <SCORE.norm>
-5.0666

$$$$
P132826030
 OpenBabel12072022113D
libRbt.so/2013.1/901 2013/11/27
 17 16  0  0  0  0  0  0  0  0999 V2000
  -29.4588   17.0939  -17.2381 C   0  0  0  0  0  0  0  0  0  0  0  0
  -30.3759   17.9142  -16.4574 N   0  0  0  0  0  0  0  0  0  0  0  0
  -31.5385   18.4094  -17.1856 C   0  0  0  0  0  0  0  0  0  0  0  0
  -30.3384   18.0732  -15.0854 C   0  0  0  0  0  0  0  0  0  0  0  0
  -31.2258   18.6600  -14.4520 O   0  0  0  0  0  0  0  0  0  0  0  0
  -29.2499   17.3898  -14.2721 C   0  0  0  0  0  0  0  0  0  0  0  0
  -27.9817   18.1269  -14.4089 N   0  0  0  0  0  0  0  0  0  0  0  0
  -27.2971   18.6551  -13.3702 C   0  0  0  0  0  0  0  0  0  0  0  0
  -27.7016   18.5336  -12.0681 N   0  3  0  0  0  0  0  0  0  0  0  0
  -28.3383   17.7770  -11.7679 H   0  0  0  0  0  0  0  0  0  0  0  0
  -26.9891   19.2072  -11.0608 N   0  0  0  0  0  0  0  0  0  0  0  0
  -26.1675   19.3385  -13.6252 N   0  0  0  0  0  0  0  0  0  0  0  0
  -27.6178   18.2916  -15.3361 H   0  0  0  0  0  0  0  0  0  0  0  0
  -25.9894   18.9938  -11.1635 H   0  0  0  0  0  0  0  0  0  0  0  0
  -27.0794   20.2193  -11.2198 H   0  0  0  0  0  0  0  0  0  0  0  0
  -25.7776   19.4603  -14.5466 H   0  0  0  0  0  0  0  0  0  0  0  0
  -25.6241   19.6253  -12.8178 H   0  0  0  0  0  0  0  0  0  0  0  0
  1  2  1  0  0  0  0
  2  3  1  0  0  0  0
  2  4  1  0  0  0  0
  4  5  2  0  0  0  0
  4  6  1  0  0  0  0
  6  7  1  0  0  0  0
  7  8  1  0  0  0  0
  7 13  1  0  0  0  0
  8  9  2  0  0  0  0
  8 12  1  0  0  0  0
  9 10  1  0  0  0  0
  9 11  1  0  0  0  0
 11 14  1  0  0  0  0
 11 15  1  0  0  0  0
 12 16  1  0  0  0  0
 12 17  1  0  0  0  0
M  CHG  1   9   1
M  END
>  <CHROM.0>
-57.03411892,-64.29916077,-60.20765341,50.29459307,-52.94581712,-169.41071983
-65.71464366,-174.27340123,-168.24998211

>  <CHROM.1>
77.11809610,121.47414400,-50.80862684,-28.90702225,18.33337413,-14.45297293
-2.28557124,-0.00086819,1.33069855

>  <Name>
P132826030

>  <RI>
0

>  <Rbt.Current_Directory>
/home/fstefaniak/projects/zuza/docking/adenine/4TZX

>  <Rbt.Executable>
rbdock ($Id: //depot/dev/client3/rdock/2013.1/src/exe/rbdock.cxx#4 $)

>  <Rbt.Library>
libRbt.so (2013.1, Build901 2013/11/27)

>  <Rbt.Parameter_File>
/home/fstefaniak/progs/rDock//data/scripts/dock_solv.prm

>  <Rbt.Receptor>
4tzx.prm

>  <SCORE>
-53.0262

>  <SCORE.INTER>
-37.6007

>  <SCORE.INTER.CONST>
1

>  <SCORE.INTER.POLAR>
-7.46792

>  <SCORE.INTER.ROT>
3

>  <SCORE.INTER.SOLV>
21.549

>  <SCORE.INTER.VDW>
-12.9571

>  <SCORE.INTER.norm>
-3.41825

>  <SCORE.INTRA>
2.14145

>  <SCORE.INTRA.DIHEDRAL>
0.195759

>  <SCORE.INTRA.DIHEDRAL.0>
4.37463

>  <SCORE.INTRA.POLAR>
0.57776

>  <SCORE.INTRA.POLAR.0>
-0.57776

>  <SCORE.INTRA.REPUL>
0

>  <SCORE.INTRA.REPUL.0>
0

>  <SCORE.INTRA.SOLV>
-1.12063

>  <SCORE.INTRA.SOLV.lig_0>
-32.5569

>  <SCORE.INTRA.VDW>
0.639498

>  <SCORE.INTRA.VDW.0>
-0.906106

>  <SCORE.INTRA.norm>
0.194677

>  <SCORE.RESTR>
0

>  <SCORE.RESTR.CAVITY>
0

>  <SCORE.RESTR.norm>
0

>  <SCORE.SYSTEM>
-17.5669

>  <SCORE.SYSTEM.CONST>
0

>  <SCORE.SYSTEM.DIHEDRAL>
4.31798

>  <SCORE.SYSTEM.POLAR>
-2.51632

>  <SCORE.SYSTEM.SOLV>
-0.0990266

>  <SCORE.SYSTEM.VDW>
-4.72987

>  <SCORE.SYSTEM.norm>
-1.59699

>  <SCORE.heavy>
11

>  <SCORE.norm>
-4.82056

$$$$
P132826030
 OpenBabel12072022113D
libRbt.so/2013.1/901 2013/11/27
 17 16  0  0  0  0  0  0  0  0999 V2000
  -29.5331   17.1423  -17.2849 C   0  0  0  0  0  0  0  0  0  0  0  0
  -30.4142   17.9680  -16.4693 N   0  0  0  0  0  0  0  0  0  0  0  0
  -31.5854   18.4954  -17.1602 C   0  0  0  0  0  0  0  0  0  0  0  0
  -30.3387   18.1062  -15.0966 C   0  0  0  0  0  0  0  0  0  0  0  0
  -31.1983   18.7001  -14.4323 O   0  0  0  0  0  0  0  0  0  0  0  0
  -29.2430   17.3908  -14.3214 C   0  0  0  0  0  0  0  0  0  0  0  0
  -27.9745   18.1297  -14.4451 N   0  0  0  0  0  0  0  0  0  0  0  0
  -27.2977   18.6527  -13.3985 C   0  0  0  0  0  0  0  0  0  0  0  0
  -27.7114   18.5235  -12.1000 N   0  3  0  0  0  0  0  0  0  0  0  0
  -28.3496   17.7647  -11.8086 H   0  0  0  0  0  0  0  0  0  0  0  0
  -27.0067   19.1921  -11.0840 N   0  0  0  0  0  0  0  0  0  0  0  0
  -26.1669   19.3384  -13.6416 N   0  0  0  0  0  0  0  0  0  0  0  0
  -27.6041   18.2999  -15.3686 H   0  0  0  0  0  0  0  0  0  0  0  0
  -26.0049   18.9889  -11.1872 H   0  0  0  0  0  0  0  0  0  0  0  0
  -27.1058   20.2051  -11.2316 H   0  0  0  0  0  0  0  0  0  0  0  0
  -25.7706   19.4658  -14.5596 H   0  0  0  0  0  0  0  0  0  0  0  0
  -25.6296   19.6212  -12.8288 H   0  0  0  0  0  0  0  0  0  0  0  0
  1  2  1  0  0  0  0
  2  3  1  0  0  0  0
  2  4  1  0  0  0  0
  4  5  2  0  0  0  0
  4  6  1  0  0  0  0
  6  7  1  0  0  0  0
  7  8  1  0  0  0  0
  7 13  1  0  0  0  0
  8  9  2  0  0  0  0
  8 12  1  0  0  0  0
  9 10  1  0  0  0  0
  9 11  1  0  0  0  0
 11 14  1  0  0  0  0
 11 15  1  0  0  0  0
 12 16  1  0  0  0  0
 12 17  1  0  0  0  0
M  CHG  1   9   1
M  END
>  <CHROM.0>
-62.13853556,56.95313806,-72.75352009,49.65898051,-61.22583207,-169.33756078
-171.04961608,-64.97728096,-168.75829170

>  <CHROM.1>
78.92414169,119.38175024,-50.15993527,-28.92042848,18.35497030,-14.47154887
-2.29170676,-0.01186034,1.33400687

>  <Name>
P132826030

>  <RI>
0

>  <Rbt.Current_Directory>
/home/fstefaniak/projects/zuza/docking/adenine/4TZX

>  <Rbt.Executable>
rbdock ($Id: //depot/dev/client3/rdock/2013.1/src/exe/rbdock.cxx#4 $)

>  <Rbt.Library>
libRbt.so (2013.1, Build901 2013/11/27)

>  <Rbt.Parameter_File>
/home/fstefaniak/progs/rDock//data/scripts/dock_solv.prm

>  <Rbt.Receptor>
4tzx.prm

>  <SCORE>
-52.074

>  <SCORE.INTER>
-37.8676

>  <SCORE.INTER.CONST>
1

>  <SCORE.INTER.POLAR>
-7.43693

>  <SCORE.INTER.ROT>
3

>  <SCORE.INTER.SOLV>
21.5637

>  <SCORE.INTER.VDW>
-13.2432

>  <SCORE.INTER.norm>
-3.44251

>  <SCORE.INTRA>
2.19902

>  <SCORE.INTRA.DIHEDRAL>
0.237539

>  <SCORE.INTRA.DIHEDRAL.0>
4.37463

>  <SCORE.INTRA.POLAR>
0.57776

>  <SCORE.INTRA.POLAR.0>
-0.57776

>  <SCORE.INTRA.REPUL>
0

>  <SCORE.INTRA.REPUL.0>
0

>  <SCORE.INTRA.SOLV>
-1.12938

>  <SCORE.INTRA.SOLV.lig_0>
-32.5569

>  <SCORE.INTRA.VDW>
0.680558

>  <SCORE.INTRA.VDW.0>
-0.906106

>  <SCORE.INTRA.norm>
0.199911

>  <SCORE.RESTR>
0

>  <SCORE.RESTR.CAVITY>
0

>  <SCORE.RESTR.norm>
0

>  <SCORE.SYSTEM>
-16.4054

>  <SCORE.SYSTEM.CONST>
0

>  <SCORE.SYSTEM.DIHEDRAL>
4.94438

>  <SCORE.SYSTEM.POLAR>
-2.44717

>  <SCORE.SYSTEM.SOLV>
0.0438028

>  <SCORE.SYSTEM.VDW>
-4.44243

>  <SCORE.SYSTEM.norm>
-1.4914

>  <SCORE.heavy>
11

>  <SCORE.norm>
-4.734

$$$$
P132826043
 OpenBabel12072022113D
libRbt.so/2013.1/901 2013/11/27
 18 18  0  0  0  0  0  0  0  0999 V2000
  -27.4255   12.8869  -17.9466 C   0  0  0  0  0  0  0  0  0  0  0  0
  -27.1970   13.2175  -16.4694 C   0  0  1  0  0  0  0  0  0  0  0  0
  -25.7644   13.7028  -16.2108 C   0  0  0  0  0  0  0  0  0  0  0  0
  -25.5124   15.1170  -16.7274 C   0  0  0  0  0  0  0  0  0  0  0  0
  -26.5371   16.1081  -16.1847 C   0  0  0  0  0  0  0  0  0  0  0  0
  -27.9760   15.6654  -16.4689 C   0  0  1  0  0  0  0  0  0  0  0  0
  -28.2181   14.2393  -15.9505 C   0  0  0  0  0  0  0  0  0  0  0  0
  -28.9505   16.5895  -15.8408 N   0  0  0  0  0  0  0  0  0  0  0  0
  -29.7979   17.4028  -16.4984 C   0  0  0  0  0  0  0  0  0  0  0  0
  -29.8928   17.4078  -17.8676 N   0  3  0  0  0  0  0  0  0  0  0  0
  -29.4862   16.6778  -18.4492 H   0  0  0  0  0  0  0  0  0  0  0  0
  -30.7390   18.3371  -18.4946 N   0  0  0  0  0  0  0  0  0  0  0  0
  -30.5894   18.2280  -15.7924 N   0  0  0  0  0  0  0  0  0  0  0  0
  -29.0246   16.5834  -14.8312 H   0  0  0  0  0  0  0  0  0  0  0  0
  -30.2310   18.7979  -19.2600 H   0  0  0  0  0  0  0  0  0  0  0  0
  -31.5284   17.8438  -18.9303 H   0  0  0  0  0  0  0  0  0  0  0  0
  -30.5713   18.2912  -14.7856 H   0  0  0  0  0  0  0  0  0  0  0  0
  -31.3037   18.7347  -16.3026 H   0  0  0  0  0  0  0  0  0  0  0  0
  2  1  1  6  0  0  0
  2  3  1  0  0  0  0
  2  7  1  0  0  0  0
  3  4  1  0  0  0  0
  4  5  1  0  0  0  0
  5  6  1  0  0  0  0
  6  7  1  0  0  0  0
  6  8  1  1  0  0  0
  8  9  1  0  0  0  0
  8 14  1  0  0  0  0
  9 10  2  0  0  0  0
  9 13  1  0  0  0  0
 10 11  1  0  0  0  0
 10 12  1  0  0  0  0
 12 15  1  0  0  0  0
 12 16  1  0  0  0  0
 13 17  1  0  0  0  0
 13 18  1  0  0  0  0
M  CHG  1  10   1
M  END
>  <CHROM.0>
-59.41122961,-61.57656604,-68.03519737,-43.29334331,-176.99290506,-178.35130827
-68.44537692,-56.01560480,-168.36368742

>  <CHROM.1>
113.14747476,131.78029756,-28.27556703,15.79334916,-16.73044580,0.52192947
0.67245292,-2.43370637

>  <Name>
P132826043

>  <RI>
0

>  <Rbt.Current_Directory>
/home/fstefaniak/projects/zuza/docking/adenine/4TZX

>  <Rbt.Executable>
rbdock ($Id: //depot/dev/client3/rdock/2013.1/src/exe/rbdock.cxx#4 $)

>  <Rbt.Library>
libRbt.so (2013.1, Build901 2013/11/27)

>  <Rbt.Parameter_File>
/home/fstefaniak/progs/rDock//data/scripts/dock_solv.prm

>  <Rbt.Receptor>
4tzx.prm

>  <SCORE>
-48.3067

>  <SCORE.INTER>
-26.5991

>  <SCORE.INTER.CONST>
1

>  <SCORE.INTER.POLAR>
-2.16214

>  <SCORE.INTER.ROT>
2

>  <SCORE.INTER.SOLV>
16.2945

>  <SCORE.INTER.VDW>
-20.8905

>  <SCORE.INTER.norm>
-2.21659

>  <SCORE.INTRA>
-0.623094

>  <SCORE.INTRA.DIHEDRAL>
-0.025475

>  <SCORE.INTRA.DIHEDRAL.0>
3.08996

>  <SCORE.INTRA.POLAR>
-0.00704997

>  <SCORE.INTRA.POLAR.0>
-0.0362239

>  <SCORE.INTRA.REPUL>
0

>  <SCORE.INTRA.REPUL.0>
0

>  <SCORE.INTRA.SOLV>
-0.368807

>  <SCORE.INTRA.SOLV.lig_0>
-27.2241

>  <SCORE.INTRA.VDW>
-0.401984

>  <SCORE.INTRA.VDW.0>
-0.602231

>  <SCORE.INTRA.norm>
-0.0519245

>  <SCORE.RESTR>
0

>  <SCORE.RESTR.CAVITY>
0

>  <SCORE.RESTR.norm>
0

>  <SCORE.SYSTEM>
-21.0845

>  <SCORE.SYSTEM.CONST>
0

>  <SCORE.SYSTEM.DIHEDRAL>
4.72395

>  <SCORE.SYSTEM.POLAR>
-3.05163

>  <SCORE.SYSTEM.SOLV>
-0.120353

>  <SCORE.SYSTEM.VDW>
-5.41874

>  <SCORE.SYSTEM.norm>
-1.75704

>  <SCORE.heavy>
12

>  <SCORE.norm>
-4.02556

$$$$
P132826043
 OpenBabel12072022113D
libRbt.so/2013.1/901 2013/11/27
 18 18  0  0  0  0  0  0  0  0999 V2000
  -27.4383   12.8671  -18.0049 C   0  0  0  0  0  0  0  0  0  0  0  0
  -27.2104   13.1842  -16.5247 C   0  0  1  0  0  0  0  0  0  0  0  0
  -25.7726   13.6492  -16.2581 C   0  0  0  0  0  0  0  0  0  0  0  0
  -25.5008   15.0637  -16.7637 C   0  0  0  0  0  0  0  0  0  0  0  0
  -26.5145   16.0640  -16.2172 C   0  0  0  0  0  0  0  0  0  0  0  0
  -27.9580   15.6418  -16.5091 C   0  0  1  0  0  0  0  0  0  0  0  0
  -28.2201   14.2153  -16.0017 C   0  0  0  0  0  0  0  0  0  0  0  0
  -28.9226   16.5739  -15.8775 N   0  0  0  0  0  0  0  0  0  0  0  0
  -29.7714   17.3883  -16.5321 C   0  0  0  0  0  0  0  0  0  0  0  0
  -29.8775   17.3871  -17.9005 N   0  3  0  0  0  0  0  0  0  0  0  0
  -29.4793   16.6523  -18.4819 H   0  0  0  0  0  0  0  0  0  0  0  0
  -30.7242   18.3177  -18.5250 N   0  0  0  0  0  0  0  0  0  0  0  0
  -30.5528   18.2209  -15.8236 N   0  0  0  0  0  0  0  0  0  0  0  0
  -28.9884   16.5730  -14.8673 H   0  0  0  0  0  0  0  0  0  0  0  0
  -30.2051   18.8078  -19.2643 H   0  0  0  0  0  0  0  0  0  0  0  0
  -31.4927   17.8223  -18.9942 H   0  0  0  0  0  0  0  0  0  0  0  0
  -30.5261   18.2888  -14.8173 H   0  0  0  0  0  0  0  0  0  0  0  0
  -31.2688   18.7287  -16.3304 H   0  0  0  0  0  0  0  0  0  0  0  0
  2  1  1  6  0  0  0
  2  3  1  0  0  0  0
  2  7  1  0  0  0  0
  3  4  1  0  0  0  0
  4  5  1  0  0  0  0
  5  6  1  0  0  0  0
  6  7  1  0  0  0  0
  6  8  1  1  0  0  0
  8  9  1  0  0  0  0
  8 14  1  0  0  0  0
  9 10  2  0  0  0  0
  9 13  1  0  0  0  0
 10 11  1  0  0  0  0
 10 12  1  0  0  0  0
 12 15  1  0  0  0  0
 12 16  1  0  0  0  0
 13 17  1  0  0  0  0
 13 18  1  0  0  0  0
M  CHG  1  10   1
M  END
>  <CHROM.0>
-57.87346153,-61.29901225,-65.09128326,-43.00362349,-61.37224837,57.91423412
-66.44365592,-55.75779051,-168.97521567

>  <CHROM.1>
114.19787630,128.79771963,-28.26368532,15.76648807,-16.77076804,0.53237505
0.67267821,-2.44105646

>  <Name>
P132826043

>  <RI>
0

>  <Rbt.Current_Directory>
/home/fstefaniak/projects/zuza/docking/adenine/4TZX

>  <Rbt.Executable>
rbdock ($Id: //depot/dev/client3/rdock/2013.1/src/exe/rbdock.cxx#4 $)

>  <Rbt.Library>
libRbt.so (2013.1, Build901 2013/11/27)

>  <Rbt.Parameter_File>
/home/fstefaniak/progs/rDock//data/scripts/dock_solv.prm

>  <Rbt.Receptor>
4tzx.prm

>  <SCORE>
-47.26

>  <SCORE.INTER>
-26.6052

>  <SCORE.INTER.CONST>
1

>  <SCORE.INTER.POLAR>
-2.14138

>  <SCORE.INTER.ROT>
2

>  <SCORE.INTER.SOLV>
16.358

>  <SCORE.INTER.VDW>
-20.9848

>  <SCORE.INTER.norm>
-2.2171

>  <SCORE.INTRA>
-0.606212

>  <SCORE.INTRA.DIHEDRAL>
0.0128529

>  <SCORE.INTRA.DIHEDRAL.0>
3.08996

>  <SCORE.INTRA.POLAR>
-0.00704997

>  <SCORE.INTRA.POLAR.0>
-0.0362239

>  <SCORE.INTRA.REPUL>
0

>  <SCORE.INTRA.REPUL.0>
0

>  <SCORE.INTRA.SOLV>
-0.369093

>  <SCORE.INTRA.SOLV.lig_0>
-27.2241

>  <SCORE.INTRA.VDW>
-0.404123

>  <SCORE.INTRA.VDW.0>
-0.602231

>  <SCORE.INTRA.norm>
-0.0505177

>  <SCORE.RESTR>
0

>  <SCORE.RESTR.CAVITY>
0

>  <SCORE.RESTR.norm>
0

>  <SCORE.SYSTEM>
-20.0486

>  <SCORE.SYSTEM.CONST>
0

>  <SCORE.SYSTEM.DIHEDRAL>
4.40037

>  <SCORE.SYSTEM.POLAR>
-3.07322

>  <SCORE.SYSTEM.SOLV>
0.0599221

>  <SCORE.SYSTEM.VDW>
-4.60846

>  <SCORE.SYSTEM.norm>
-1.67072

>  <SCORE.heavy>
12

>  <SCORE.norm>
-3.93833

$$$$
P132826043
 OpenBabel12072022113D
libRbt.so/2013.1/901 2013/11/27
 18 18  0  0  0  0  0  0  0  0999 V2000
  -27.4249   12.8655  -17.9859 C   0  0  0  0  0  0  0  0  0  0  0  0
  -27.2052   13.1850  -16.5049 C   0  0  1  0  0  0  0  0  0  0  0  0
  -25.7682   13.6479  -16.2306 C   0  0  0  0  0  0  0  0  0  0  0  0
  -25.4908   15.0609  -16.7372 C   0  0  0  0  0  0  0  0  0  0  0  0
  -26.5059   16.0640  -16.1986 C   0  0  0  0  0  0  0  0  0  0  0  0
  -27.9484   15.6440  -16.4984 C   0  0  1  0  0  0  0  0  0  0  0  0
  -28.2161   14.2188  -15.9899 C   0  0  0  0  0  0  0  0  0  0  0  0
  -28.9151   16.5789  -15.8743 N   0  0  0  0  0  0  0  0  0  0  0  0
  -29.7565   17.3956  -16.5355 C   0  0  0  0  0  0  0  0  0  0  0  0
  -29.8524   17.3943  -17.9046 N   0  3  0  0  0  0  0  0  0  0  0  0
  -29.4520   16.6582  -18.4828 H   0  0  0  0  0  0  0  0  0  0  0  0
  -30.6917   18.3271  -18.5357 N   0  0  0  0  0  0  0  0  0  0  0  0
  -30.5409   18.2306  -15.8331 N   0  0  0  0  0  0  0  0  0  0  0  0
  -28.9885   16.5785  -14.8646 H   0  0  0  0  0  0  0  0  0  0  0  0
  -30.1737   18.7960  -19.2894 H   0  0  0  0  0  0  0  0  0  0  0  0
  -31.4733   17.8358  -18.9873 H   0  0  0  0  0  0  0  0  0  0  0  0
  -30.5216   18.2987  -14.8266 H   0  0  0  0  0  0  0  0  0  0  0  0
  -31.2516   18.7403  -16.3453 H   0  0  0  0  0  0  0  0  0  0  0  0
  2  1  1  6  0  0  0
  2  3  1  0  0  0  0
  2  7  1  0  0  0  0
  3  4  1  0  0  0  0
  4  5  1  0  0  0  0
  5  6  1  0  0  0  0
  6  7  1  0  0  0  0
  6  8  1  1  0  0  0
  8  9  1  0  0  0  0
  8 14  1  0  0  0  0
  9 10  2  0  0  0  0
  9 13  1  0  0  0  0
 10 11  1  0  0  0  0
 10 12  1  0  0  0  0
 12 15  1  0  0  0  0
 12 16  1  0  0  0  0
 13 17  1  0  0  0  0
 13 18  1  0  0  0  0
M  CHG  1  10   1
M  END
>  <CHROM.0>
-60.53677003,-58.79691844,-175.06108003,-43.23935822,-59.61216847,-62.07805168
-60.14714112,-175.49618637,-168.60717238

>  <CHROM.1>
114.05702619,130.44944570,-28.25126009,15.76979081,-16.76207442,0.52913570
0.67968220,-2.43991968

>  <Name>
P132826043

>  <RI>
0

>  <Rbt.Current_Directory>
/home/fstefaniak/projects/zuza/docking/adenine/4TZX

>  <Rbt.Executable>
rbdock ($Id: //depot/dev/client3/rdock/2013.1/src/exe/rbdock.cxx#4 $)

>  <Rbt.Library>
libRbt.so (2013.1, Build901 2013/11/27)

>  <Rbt.Parameter_File>
/home/fstefaniak/progs/rDock//data/scripts/dock_solv.prm

>  <Rbt.Receptor>
4tzx.prm

>  <SCORE>
-45.8682

>  <SCORE.INTER>
-26.6673

>  <SCORE.INTER.CONST>
1

>  <SCORE.INTER.POLAR>
-2.1666

>  <SCORE.INTER.ROT>
2

>  <SCORE.INTER.SOLV>
16.3792

>  <SCORE.INTER.VDW>
-20.9493

>  <SCORE.INTER.norm>
-2.22228

>  <SCORE.INTRA>
-0.614373

>  <SCORE.INTRA.DIHEDRAL>
-0.00431061

>  <SCORE.INTRA.DIHEDRAL.0>
3.08996

>  <SCORE.INTRA.POLAR>
-0.00704997

>  <SCORE.INTRA.POLAR.0>
-0.0362239

>  <SCORE.INTRA.REPUL>
0

>  <SCORE.INTRA.REPUL.0>
0

>  <SCORE.INTRA.SOLV>
-0.367318

>  <SCORE.INTRA.SOLV.lig_0>
-27.2241

>  <SCORE.INTRA.VDW>
-0.404589

>  <SCORE.INTRA.VDW.0>
-0.602231

>  <SCORE.INTRA.norm>
-0.0511977

>  <SCORE.RESTR>
0

>  <SCORE.RESTR.CAVITY>
0

>  <SCORE.RESTR.norm>
0

>  <SCORE.SYSTEM>
-18.5865

>  <SCORE.SYSTEM.CONST>
0

>  <SCORE.SYSTEM.DIHEDRAL>
4.18947

>  <SCORE.SYSTEM.POLAR>
-2.52014

>  <SCORE.SYSTEM.SOLV>
0.00658415

>  <SCORE.SYSTEM.VDW>
-5.3892

>  <SCORE.SYSTEM.norm>
-1.54887

>  <SCORE.heavy>
12

>  <SCORE.norm>
-3.82235

$$$$
P132826048
 OpenBabel12072022113D
libRbt.so/2013.1/901 2013/11/27
 18 18  0  0  0  0  0  0  0  0999 V2000
  -28.4621   13.3734  -16.2807 C   0  0  0  0  0  0  0  0  0  0  0  0
  -27.9934   12.0872  -15.5960 C   0  0  1  0  0  0  0  0  0  0  0  0
  -28.0946   10.8760  -16.5317 C   0  0  0  0  0  0  0  0  0  0  0  0
  -26.9937   10.8433  -17.5879 C   0  0  0  0  0  0  0  0  0  0  0  0
  -25.6063   10.9306  -16.9570 C   0  0  0  0  0  0  0  0  0  0  0  0
  -25.4466   12.1510  -16.0411 C   0  0  2  0  0  0  0  0  0  0  0  0
  -26.5787   12.2157  -15.0059 C   0  0  0  0  0  0  0  0  0  0  0  0
  -25.3500   13.3891  -16.8478 N   0  0  0  0  0  0  0  0  0  0  0  0
  -25.1405   14.6310  -16.3708 C   0  0  0  0  0  0  0  0  0  0  0  0
  -25.1290   15.6926  -17.2471 N   0  3  0  0  0  0  0  0  0  0  0  0
  -25.1045   15.5831  -18.2596 H   0  0  0  0  0  0  0  0  0  0  0  0
  -24.9995   16.9966  -16.7413 N   0  0  0  0  0  0  0  0  0  0  0  0
  -24.9302   14.8680  -15.0675 N   0  0  0  0  0  0  0  0  0  0  0  0
  -25.4006   13.3002  -17.8547 H   0  0  0  0  0  0  0  0  0  0  0  0
  -25.7815   17.5737  -17.0758 H   0  0  0  0  0  0  0  0  0  0  0  0
  -24.1430   17.4282  -17.1102 H   0  0  0  0  0  0  0  0  0  0  0  0
  -24.8874   14.1329  -14.3786 H   0  0  0  0  0  0  0  0  0  0  0  0
  -24.6541   15.8045  -14.7996 H   0  0  0  0  0  0  0  0  0  0  0  0
  2  1  1  6  0  0  0
  2  3  1  0  0  0  0
  2  7  1  0  0  0  0
  3  4  1  0  0  0  0
  4  5  1  0  0  0  0
  5  6  1  0  0  0  0
  6  7  1  0  0  0  0
  6  8  1  6  0  0  0
  8  9  1  0  0  0  0
  8 14  1  0  0  0  0
  9 10  2  0  0  0  0
  9 13  1  0  0  0  0
 10 11  1  0  0  0  0
 10 12  1  0  0  0  0
 12 15  1  0  0  0  0
 12 16  1  0  0  0  0
 13 17  1  0  0  0  0
 13 18  1  0  0  0  0
M  CHG  1  10   1
M  END
>  <CHROM.0>
-61.55422426,-175.42942392,-41.81902158,-43.47264851,-178.98363733,56.84202565
-65.73543827,-59.63532905,-166.90747953

>  <CHROM.1>
-176.64600757,-124.90970944,-26.20420579,13.25371779,-16.36976006,2.04656532
-0.25461785,-3.01728699

>  <Name>
P132826048

>  <RI>
0

>  <Rbt.Current_Directory>
/home/fstefaniak/projects/zuza/docking/adenine/4TZX

>  <Rbt.Executable>
rbdock ($Id: //depot/dev/client3/rdock/2013.1/src/exe/rbdock.cxx#4 $)

>  <Rbt.Library>
libRbt.so (2013.1, Build901 2013/11/27)

>  <Rbt.Parameter_File>
/home/fstefaniak/progs/rDock//data/scripts/dock_solv.prm

>  <Rbt.Receptor>
4tzx.prm

>  <SCORE>
-38.7729

>  <SCORE.INTER>
-21.2938

>  <SCORE.INTER.CONST>
1

>  <SCORE.INTER.POLAR>
-4.84593

>  <SCORE.INTER.ROT>
2

>  <SCORE.INTER.SOLV>
18.0846

>  <SCORE.INTER.VDW>
-9.0043

>  <SCORE.INTER.norm>
-1.77448

>  <SCORE.INTRA>
0.312879

>  <SCORE.INTRA.DIHEDRAL>
0.125923

>  <SCORE.INTRA.DIHEDRAL.0>
3.05781

>  <SCORE.INTRA.POLAR>
-0.0069856

>  <SCORE.INTRA.POLAR.0>
-0.0299945

>  <SCORE.INTRA.REPUL>
0

>  <SCORE.INTRA.REPUL.0>
0

>  <SCORE.INTRA.SOLV>
0.145794

>  <SCORE.INTRA.SOLV.lig_0>
-26.0797

>  <SCORE.INTRA.VDW>
0.200772

>  <SCORE.INTRA.VDW.0>
-1.12556

>  <SCORE.INTRA.norm>
0.0260732

>  <SCORE.RESTR>
1.77075

>  <SCORE.RESTR.CAVITY>
1.77075

>  <SCORE.RESTR.norm>
0.147563

>  <SCORE.SYSTEM>
-19.5628

>  <SCORE.SYSTEM.CONST>
0

>  <SCORE.SYSTEM.DIHEDRAL>
5.81189

>  <SCORE.SYSTEM.POLAR>
-3.20633

>  <SCORE.SYSTEM.SOLV>
-0.136776

>  <SCORE.SYSTEM.VDW>
-4.24577

>  <SCORE.SYSTEM.norm>
-1.63023

>  <SCORE.heavy>
12

>  <SCORE.norm>
-3.23108

$$$$
P132826048
 OpenBabel12072022113D
libRbt.so/2013.1/901 2013/11/27
 18 18  0  0  0  0  0  0  0  0999 V2000
  -24.2127   12.7294  -14.3053 C   0  0  0  0  0  0  0  0  0  0  0  0
  -24.6271   12.0318  -15.6031 C   0  0  1  0  0  0  0  0  0  0  0  0
  -26.0316   11.4241  -15.4981 C   0  0  0  0  0  0  0  0  0  0  0  0
  -27.1418   12.4679  -15.5777 C   0  0  0  0  0  0  0  0  0  0  0  0
  -27.0133   13.3313  -16.8301 C   0  0  0  0  0  0  0  0  0  0  0  0
  -25.6344   13.9916  -16.9568 C   0  0  2  0  0  0  0  0  0  0  0  0
  -24.5113   12.9525  -16.8299 C   0  0  0  0  0  0  0  0  0  0  0  0
  -25.4988   15.0901  -15.9728 N   0  0  0  0  0  0  0  0  0  0  0  0
  -26.3861   16.0818  -15.7654 C   0  0  0  0  0  0  0  0  0  0  0  0
  -26.0909   17.0641  -14.8472 N   0  3  0  0  0  0  0  0  0  0  0  0
  -25.3146   17.0022  -14.1905 H   0  0  0  0  0  0  0  0  0  0  0  0
  -26.9738   18.1458  -14.6942 N   0  0  0  0  0  0  0  0  0  0  0  0
  -27.5571   16.1383  -16.4167 N   0  0  0  0  0  0  0  0  0  0  0  0
  -24.6900   15.0800  -15.3645 H   0  0  0  0  0  0  0  0  0  0  0  0
  -27.0068   18.6880  -15.5668 H   0  0  0  0  0  0  0  0  0  0  0  0
  -26.6189   18.7835  -13.9707 H   0  0  0  0  0  0  0  0  0  0  0  0
  -27.8521   15.4315  -17.0726 H   0  0  0  0  0  0  0  0  0  0  0  0
  -28.2263   16.8373  -16.1188 H   0  0  0  0  0  0  0  0  0  0  0  0
  2  1  1  1  0  0  0
  2  3  1  0  0  0  0
  2  7  1  0  0  0  0
  3  4  1  0  0  0  0
  4  5  1  0  0  0  0
  5  6  1  0  0  0  0
  6  7  1  0  0  0  0
  6  8  1  1  0  0  0
  8  9  1  0  0  0  0
  8 14  1  0  0  0  0
  9 10  2  0  0  0  0
  9 13  1  0  0  0  0
 10 11  1  0  0  0  0
 10 12  1  0  0  0  0
 12 15  1  0  0  0  0
 12 16  1  0  0  0  0
 13 17  1  0  0  0  0
 13 18  1  0  0  0  0
M  CHG  1  10   1
M  END
>  <CHROM.0>
-59.93195134,-62.78738732,59.65569393,-43.05900511,-56.37678213,-62.22086917
54.99263431,-174.83513398,-169.66544641

>  <CHROM.1>
-49.57840684,-64.10760482,-25.99044192,14.36578159,-15.74651939,-1.24147026
-0.57526635,0.27225647

>  <Name>
P132826048

>  <RI>
0

>  <Rbt.Current_Directory>
/home/fstefaniak/projects/zuza/docking/adenine/4TZX

>  <Rbt.Executable>
rbdock ($Id: //depot/dev/client3/rdock/2013.1/src/exe/rbdock.cxx#4 $)

>  <Rbt.Library>
libRbt.so (2013.1, Build901 2013/11/27)

>  <Rbt.Parameter_File>
/home/fstefaniak/progs/rDock//data/scripts/dock_solv.prm

>  <Rbt.Receptor>
4tzx.prm

>  <SCORE>
-38.2493

>  <SCORE.INTER>
-22.2273

>  <SCORE.INTER.CONST>
1

>  <SCORE.INTER.POLAR>
-3.85408

>  <SCORE.INTER.ROT>
2

>  <SCORE.INTER.SOLV>
14.6622

>  <SCORE.INTER.VDW>
-11.792

>  <SCORE.INTER.norm>
-1.85227

>  <SCORE.INTRA>
3.06548

>  <SCORE.INTRA.DIHEDRAL>
0.0484235

>  <SCORE.INTRA.DIHEDRAL.0>
3.05781

>  <SCORE.INTRA.POLAR>
-0.00223252

>  <SCORE.INTRA.POLAR.0>
-0.0299945

>  <SCORE.INTRA.REPUL>
0

>  <SCORE.INTRA.REPUL.0>
0

>  <SCORE.INTRA.SOLV>
0.605105

>  <SCORE.INTRA.SOLV.lig_0>
-26.0797

>  <SCORE.INTRA.VDW>
2.74631

>  <SCORE.INTRA.VDW.0>
-1.12556

>  <SCORE.INTRA.norm>
0.255457

>  <SCORE.RESTR>
0.00468538

>  <SCORE.RESTR.CAVITY>
0.00468538

>  <SCORE.RESTR.norm>
0.000390449

>  <SCORE.SYSTEM>
-19.0922

>  <SCORE.SYSTEM.CONST>
0

>  <SCORE.SYSTEM.DIHEDRAL>
4.23921

>  <SCORE.SYSTEM.POLAR>
-3.01261

>  <SCORE.SYSTEM.SOLV>
-0.0538466

>  <SCORE.SYSTEM.VDW>
-4.0812

>  <SCORE.SYSTEM.norm>
-1.59101

>  <SCORE.heavy>
12

>  <SCORE.norm>
-3.18744

$$$$
P132826048
 OpenBabel12072022113D
libRbt.so/2013.1/901 2013/11/27
 18 18  0  0  0  0  0  0  0  0999 V2000
  -29.4947   17.6298  -14.1340 C   0  0  0  0  0  0  0  0  0  0  0  0
  -30.6650   17.1806  -15.0121 C   0  0  1  0  0  0  0  0  0  0  0  0
  -31.1468   18.3062  -15.9362 C   0  0  0  0  0  0  0  0  0  0  0  0
  -30.2127   18.5500  -17.1180 C   0  0  0  0  0  0  0  0  0  0  0  0
  -29.9574   17.2683  -17.9069 C   0  0  0  0  0  0  0  0  0  0  0  0
  -29.4366   16.1241  -17.0277 C   0  0  2  0  0  0  0  0  0  0  0  0
  -30.3467   15.9051  -15.8108 C   0  0  0  0  0  0  0  0  0  0  0  0
  -28.0292   16.3739  -16.6404 N   0  0  0  0  0  0  0  0  0  0  0  0
  -27.1879   15.4777  -16.0902 C   0  0  0  0  0  0  0  0  0  0  0  0
  -25.9198   15.8787  -15.7351 N   0  3  0  0  0  0  0  0  0  0  0  0
  -25.5163   16.7720  -16.0128 H   0  0  0  0  0  0  0  0  0  0  0  0
  -25.0723   14.9697  -15.0807 N   0  0  0  0  0  0  0  0  0  0  0  0
  -27.5411   14.1999  -15.8868 N   0  0  0  0  0  0  0  0  0  0  0  0
  -27.6398   17.2858  -16.8436 H   0  0  0  0  0  0  0  0  0  0  0  0
  -24.6037   15.4408  -14.2966 H   0  0  0  0  0  0  0  0  0  0  0  0
  -24.3288   14.6656  -15.7215 H   0  0  0  0  0  0  0  0  0  0  0  0
  -28.4395   13.8315  -16.1589 H   0  0  0  0  0  0  0  0  0  0  0  0
  -26.8192   13.5554  -15.5892 H   0  0  0  0  0  0  0  0  0  0  0  0
  2  1  1  6  0  0  0
  2  3  1  0  0  0  0
  2  7  1  0  0  0  0
  3  4  1  0  0  0  0
  4  5  1  0  0  0  0
  5  6  1  0  0  0  0
  6  7  1  0  0  0  0
  6  8  1  1  0  0  0
  8  9  1  0  0  0  0
  8 14  1  0  0  0  0
  9 10  2  0  0  0  0
  9 13  1  0  0  0  0
 10 11  1  0  0  0  0
 10 12  1  0  0  0  0
 12 15  1  0  0  0  0
 12 16  1  0  0  0  0
 13 17  1  0  0  0  0
 13 18  1  0  0  0  0
M  CHG  1  10   1
M  END
>  <CHROM.0>
-58.83182212,-61.15851999,-57.83926348,51.06680957,-51.30752917,-59.67738779
-65.25137022,-57.28455113,-169.49650509

>  <CHROM.1>
-166.84431094,-135.55584027,-28.67009470,16.46245085,-16.01072610,3.09780162
0.53806681,-1.72216235

>  <Name>
P132826048

>  <RI>
0

>  <Rbt.Current_Directory>
/home/fstefaniak/projects/zuza/docking/adenine/4TZX

>  <Rbt.Executable>
rbdock ($Id: //depot/dev/client3/rdock/2013.1/src/exe/rbdock.cxx#4 $)

>  <Rbt.Library>
libRbt.so (2013.1, Build901 2013/11/27)

>  <Rbt.Parameter_File>
/home/fstefaniak/progs/rDock//data/scripts/dock_solv.prm

>  <Rbt.Receptor>
4tzx.prm

>  <SCORE>
-38.2378

>  <SCORE.INTER>
-20.3969

>  <SCORE.INTER.CONST>
1

>  <SCORE.INTER.POLAR>
-2.53015

>  <SCORE.INTER.ROT>
2

>  <SCORE.INTER.SOLV>
15.8549

>  <SCORE.INTER.VDW>
-15.3824

>  <SCORE.INTER.norm>
-1.69974

>  <SCORE.INTRA>
-0.11831

>  <SCORE.INTRA.DIHEDRAL>
-0.0394707

>  <SCORE.INTRA.DIHEDRAL.0>
3.05781

>  <SCORE.INTRA.POLAR>
-0.0069856

>  <SCORE.INTRA.POLAR.0>
-0.0299945

>  <SCORE.INTRA.REPUL>
0

>  <SCORE.INTRA.REPUL.0>
0

>  <SCORE.INTRA.SOLV>
-0.0852477

>  <SCORE.INTRA.SOLV.lig_0>
-26.0797

>  <SCORE.INTRA.VDW>
-0.0321998

>  <SCORE.INTRA.VDW.0>
-1.12556

>  <SCORE.INTRA.norm>
-0.00985917

>  <SCORE.RESTR>
0

>  <SCORE.RESTR.CAVITY>
0

>  <SCORE.RESTR.norm>
0

>  <SCORE.SYSTEM>
-17.7226

>  <SCORE.SYSTEM.CONST>
0

>  <SCORE.SYSTEM.DIHEDRAL>
3.51607

>  <SCORE.SYSTEM.POLAR>
-2.50411

>  <SCORE.SYSTEM.SOLV>
0.157562

>  <SCORE.SYSTEM.VDW>
-4.6926

>  <SCORE.SYSTEM.norm>
-1.47689

>  <SCORE.heavy>
12

>  <SCORE.norm>
-3.18649

$$$$
P133005854
 OpenBabel12072022113D
libRbt.so/2013.1/901 2013/11/27
 10 10  0  0  0  0  0  0  0  0999 V2000
  -29.5155   16.0872  -16.6202 C   0  0  0  0  0  0  0  0  0  0  0  0
  -28.1441   16.3154  -16.0124 C   0  0  0  0  0  0  0  0  0  0  0  0
  -28.3071   17.2357  -14.9209 O   0  0  0  0  0  0  0  0  0  0  0  0
  -29.7068   17.4630  -14.7251 C   0  0  0  0  0  0  0  0  0  0  0  0
  -30.3573   17.2277  -16.0724 C   0  0  1  0  0  0  0  0  0  0  0  0
  -30.3789   18.4810  -16.9583 C   0  0  1  0  0  0  0  0  0  0  0  0
  -30.7471   18.2511  -18.4217 C   0  0  0  0  0  0  0  0  0  0  0  0
  -29.9830   17.6974  -19.2115 O   0  0  0  0  0  0  0  0  0  0  0  0
  -31.2763   19.4253  -16.3716 O   0  0  0  0  0  0  0  0  0  0  0  0
  -31.3522   20.1663  -17.0079 H   0  0  0  0  0  0  0  0  0  0  0  0
  1  2  1  0  0  0  0
  1  5  1  0  0  0  0
  2  3  1  0  0  0  0
  3  4  1  0  0  0  0
  4  5  1  0  0  0  0
  5  6  1  6  0  0  0
  6  7  1  6  0  0  0
  6  9  1  0  0  0  0
  7  8  2  0  0  0  0
  9 10  1  0  0  0  0
M  END
>  <CHROM.0>
-59.30009246,-167.78339414,-63.48477985,-43.31633144,-177.29133931,-61.69999068
-67.30511728,-60.17577277,-168.51935333

>  <CHROM.1>
52.13102181,-71.88588391,-173.44147886,-29.82170953,17.61123262,-16.59177714
-0.70668889,0.83558163,-1.76932190

>  <Name>
P133005854

>  <RI>
0

>  <Rbt.Current_Directory>
/home/fstefaniak/projects/zuza/docking/adenine/4TZX

>  <Rbt.Executable>
rbdock ($Id: //depot/dev/client3/rdock/2013.1/src/exe/rbdock.cxx#4 $)

>  <Rbt.Library>
libRbt.so (2013.1, Build901 2013/11/27)

>  <Rbt.Parameter_File>
/home/fstefaniak/progs/rDock//data/scripts/dock_solv.prm

>  <Rbt.Receptor>
4tzx.prm

>  <SCORE>
-49.6887

>  <SCORE.INTER>
-27.1261

>  <SCORE.INTER.CONST>
1

>  <SCORE.INTER.POLAR>
-3.32204

>  <SCORE.INTER.ROT>
2

>  <SCORE.INTER.SOLV>
10.177

>  <SCORE.INTER.VDW>
-15.3363

>  <SCORE.INTER.norm>
-3.01401

>  <SCORE.INTRA>
-1.55498

>  <SCORE.INTRA.DIHEDRAL>
-0.849951

>  <SCORE.INTRA.DIHEDRAL.0>
4.46298

>  <SCORE.INTRA.POLAR>
0

>  <SCORE.INTRA.POLAR.0>
0

>  <SCORE.INTRA.REPUL>
0

>  <SCORE.INTRA.REPUL.0>
0

>  <SCORE.INTRA.SOLV>
-0.411408

>  <SCORE.INTRA.SOLV.lig_0>
-10.1399

>  <SCORE.INTRA.VDW>
-0.924303

>  <SCORE.INTRA.VDW.0>
0.782296

>  <SCORE.INTRA.norm>
-0.172776

>  <SCORE.RESTR>
0

>  <SCORE.RESTR.CAVITY>
0

>  <SCORE.RESTR.norm>
0

>  <SCORE.SYSTEM>
-21.0076

>  <SCORE.SYSTEM.CONST>
0

>  <SCORE.SYSTEM.DIHEDRAL>
4.99744

>  <SCORE.SYSTEM.POLAR>
-3.05127

>  <SCORE.SYSTEM.SOLV>
-0.0345242

>  <SCORE.SYSTEM.VDW>
-5.48849

>  <SCORE.SYSTEM.norm>
-2.33418

>  <SCORE.heavy>
9

>  <SCORE.norm>
-5.52097

$$$$
P133005854
 OpenBabel12072022113D
libRbt.so/2013.1/901 2013/11/27
 10 10  0  0  0  0  0  0  0  0999 V2000
  -29.5382   16.0442  -16.5895 C   0  0  0  0  0  0  0  0  0  0  0  0
  -28.1575   16.2764  -16.0045 C   0  0  0  0  0  0  0  0  0  0  0  0
  -28.3014   17.2162  -14.9271 O   0  0  0  0  0  0  0  0  0  0  0  0
  -29.6972   17.4536  -14.7161 C   0  0  0  0  0  0  0  0  0  0  0  0
  -30.3672   17.1980  -16.0501 C   0  0  1  0  0  0  0  0  0  0  0  0
  -30.3952   18.4359  -16.9573 C   0  0  1  0  0  0  0  0  0  0  0  0
  -30.8060   18.1859  -18.4060 C   0  0  0  0  0  0  0  0  0  0  0  0
  -30.0509   17.6553  -19.2200 O   0  0  0  0  0  0  0  0  0  0  0  0
  -31.2632   19.4031  -16.3637 O   0  0  0  0  0  0  0  0  0  0  0  0
  -31.3260   20.1453  -17.0001 H   0  0  0  0  0  0  0  0  0  0  0  0
  1  2  1  0  0  0  0
  1  5  1  0  0  0  0
  2  3  1  0  0  0  0
  3  4  1  0  0  0  0
  4  5  1  0  0  0  0
  5  6  1  6  0  0  0
  6  7  1  6  0  0  0
  6  9  1  0  0  0  0
  7  8  2  0  0  0  0
  9 10  1  0  0  0  0
M  END
>  <CHROM.0>
-61.29524680,-168.68027270,-65.34338824,-43.46549910,58.08946799,-177.20826287
-69.01474149,-59.70418497,-168.00885412

>  <CHROM.1>
53.06114552,-74.84066331,-174.98889983,-29.83891035,17.57688530,-16.58349766
-0.68626680,0.84060790,-1.80272584

>  <Name>
P133005854

>  <RI>
0

>  <Rbt.Current_Directory>
/home/fstefaniak/projects/zuza/docking/adenine/4TZX

>  <Rbt.Executable>
rbdock ($Id: //depot/dev/client3/rdock/2013.1/src/exe/rbdock.cxx#4 $)

>  <Rbt.Library>
libRbt.so (2013.1, Build901 2013/11/27)

>  <Rbt.Parameter_File>
/home/fstefaniak/progs/rDock//data/scripts/dock_solv.prm

>  <Rbt.Receptor>
4tzx.prm

>  <SCORE>
-48.668

>  <SCORE.INTER>
-27.0467

>  <SCORE.INTER.CONST>
1

>  <SCORE.INTER.POLAR>
-3.3123

>  <SCORE.INTER.ROT>
2

>  <SCORE.INTER.SOLV>
10.1447

>  <SCORE.INTER.VDW>
-15.305

>  <SCORE.INTER.norm>
-3.00519

>  <SCORE.INTRA>
-1.74915

>  <SCORE.INTRA.DIHEDRAL>
-1.11438

>  <SCORE.INTRA.DIHEDRAL.0>
4.46298

>  <SCORE.INTRA.POLAR>
0

>  <SCORE.INTRA.POLAR.0>
0

>  <SCORE.INTRA.REPUL>
0

>  <SCORE.INTRA.REPUL.0>
0

>  <SCORE.INTRA.SOLV>
-0.417562

>  <SCORE.INTRA.SOLV.lig_0>
-10.1399

>  <SCORE.INTRA.VDW>
-0.98318

>  <SCORE.INTRA.VDW.0>
0.782296

>  <SCORE.INTRA.norm>
-0.19435

>  <SCORE.RESTR>
0

>  <SCORE.RESTR.CAVITY>
0

>  <SCORE.RESTR.norm>
0

>  <SCORE.SYSTEM>
-19.8722

>  <SCORE.SYSTEM.CONST>
0

>  <SCORE.SYSTEM.DIHEDRAL>
5.14074

>  <SCORE.SYSTEM.POLAR>
-3.03896

>  <SCORE.SYSTEM.SOLV>
-0.195057

>  <SCORE.SYSTEM.VDW>
-4.7668

>  <SCORE.SYSTEM.norm>
-2.20802

>  <SCORE.heavy>
9

>  <SCORE.norm>
-5.40756

$$$$
P133005854
 OpenBabel12072022113D
libRbt.so/2013.1/901 2013/11/27
 10 10  0  0  0  0  0  0  0  0999 V2000
  -29.5577   16.0388  -16.5060 C   0  0  0  0  0  0  0  0  0  0  0  0
  -28.1252   16.2339  -16.0453 C   0  0  0  0  0  0  0  0  0  0  0  0
  -28.1451   17.2005  -14.9823 O   0  0  0  0  0  0  0  0  0  0  0  0
  -29.5091   17.4917  -14.6600 C   0  0  0  0  0  0  0  0  0  0  0  0
  -30.2985   17.2323  -15.9263 C   0  0  1  0  0  0  0  0  0  0  0  0
  -30.3619   18.4512  -16.8571 C   0  0  1  0  0  0  0  0  0  0  0  0
  -30.7537   18.1601  -18.3034 C   0  0  0  0  0  0  0  0  0  0  0  0
  -29.9823   17.6214  -19.0965 O   0  0  0  0  0  0  0  0  0  0  0  0
  -31.2665   19.3994  -16.2877 O   0  0  0  0  0  0  0  0  0  0  0  0
  -31.3730   20.1123  -16.9512 H   0  0  0  0  0  0  0  0  0  0  0  0
  1  2  1  0  0  0  0
  1  5  1  0  0  0  0
  2  3  1  0  0  0  0
  3  4  1  0  0  0  0
  4  5  1  0  0  0  0
  5  6  1  6  0  0  0
  6  7  1  6  0  0  0
  6  9  1  0  0  0  0
  7  8  2  0  0  0  0
  9 10  1  0  0  0  0
M  END
>  <CHROM.0>
-60.79187743,-174.16379126,-65.14865740,-43.42864287,-53.45270052,57.93763550
-66.92416341,-58.60684194,-168.32659992

>  <CHROM.1>
46.49573834,-73.69427625,-173.15386153,-29.77491068,17.57140575,-16.52208734
-0.61911167,0.82471684,-1.82369356

>  <Name>
P133005854

>  <RI>
0

>  <Rbt.Current_Directory>
/home/fstefaniak/projects/zuza/docking/adenine/4TZX

>  <Rbt.Executable>
rbdock ($Id: //depot/dev/client3/rdock/2013.1/src/exe/rbdock.cxx#4 $)

>  <Rbt.Library>
libRbt.so (2013.1, Build901 2013/11/27)

>  <Rbt.Parameter_File>
/home/fstefaniak/progs/rDock//data/scripts/dock_solv.prm

>  <Rbt.Receptor>
4tzx.prm

>  <SCORE>
-48.5596

>  <SCORE.INTER>
-27.2735

>  <SCORE.INTER.CONST>
1

>  <SCORE.INTER.POLAR>
-3.35371

>  <SCORE.INTER.ROT>
2

>  <SCORE.INTER.SOLV>
10.1213

>  <SCORE.INTER.VDW>
-15.3104

>  <SCORE.INTER.norm>
-3.03039

>  <SCORE.INTRA>
-1.36288

>  <SCORE.INTRA.DIHEDRAL>
-0.584263

>  <SCORE.INTRA.DIHEDRAL.0>
4.46298

>  <SCORE.INTRA.POLAR>
0

>  <SCORE.INTRA.POLAR.0>
0

>  <SCORE.INTRA.REPUL>
0

>  <SCORE.INTRA.REPUL.0>
0

>  <SCORE.INTRA.SOLV>
-0.424737

>  <SCORE.INTRA.SOLV.lig_0>
-10.1399

>  <SCORE.INTRA.VDW>
-0.858376

>  <SCORE.INTRA.VDW.0>
0.782296

>  <SCORE.INTRA.norm>
-0.151431

>  <SCORE.RESTR>
0

>  <SCORE.RESTR.CAVITY>
0

>  <SCORE.RESTR.norm>
0

>  <SCORE.SYSTEM>
-19.9232

>  <SCORE.SYSTEM.CONST>
0

>  <SCORE.SYSTEM.DIHEDRAL>
4.68292

>  <SCORE.SYSTEM.POLAR>
-3.05878

>  <SCORE.SYSTEM.SOLV>
0.0256722

>  <SCORE.SYSTEM.VDW>
-4.65573

>  <SCORE.SYSTEM.norm>
-2.21369

>  <SCORE.heavy>
9

>  <SCORE.norm>
-5.39551

$$$$
P133035570
 OpenBabel12072022113D
libRbt.so/2013.1/901 2013/11/27
 19 19  0  0  0  0  0  0  0  0999 V2000
  -30.1050   17.9274  -16.4922 C   0  0  0  0  0  0  0  0  0  0  0  0
  -31.2974   18.0511  -15.5324 C   0  0  0  0  0  0  0  0  0  0  0  0
  -30.8141   17.4969  -14.1962 C   0  0  1  0  0  0  0  0  0  0  0  0
  -29.2951   17.5669  -14.2656 C   0  0  0  0  0  0  0  0  0  0  0  0
  -29.0085   17.1860  -15.7197 C   0  0  1  0  0  0  0  0  0  0  0  0
  -29.0987   15.6785  -15.9329 C   0  0  0  0  0  0  0  0  0  0  0  0
  -30.0580   15.0270  -15.5315 O   0  0  0  0  0  0  0  0  0  0  0  0
  -28.0427   15.1436  -16.6278 N   0  0  0  0  0  0  0  0  0  0  0  0
  -27.5632   13.8075  -16.3135 C   0  0  0  0  0  0  0  0  0  0  0  0
  -26.0758   13.8640  -15.9501 C   0  0  0  0  0  0  0  0  0  0  0  0
  -25.6531   13.8301  -14.7964 O   0  0  0  0  0  0  0  0  0  0  0  0
  -25.2206   13.9360  -17.0109 N   0  0  0  0  0  0  0  0  0  0  0  0
  -31.3235   18.3041  -13.0694 N   0  3  0  0  0  0  0  0  0  0  0  0
  -31.1990   17.8391  -12.1612 H   0  0  0  0  0  0  0  0  0  0  0  0
  -30.8446   19.2134  -13.0236 H   0  0  0  0  0  0  0  0  0  0  0  0
  -32.3269   18.4992  -13.1867 H   0  0  0  0  0  0  0  0  0  0  0  0
  -27.8952   15.4478  -17.5830 H   0  0  0  0  0  0  0  0  0  0  0  0
  -25.5244   14.0035  -17.9734 H   0  0  0  0  0  0  0  0  0  0  0  0
  -24.2266   13.9788  -16.8208 H   0  0  0  0  0  0  0  0  0  0  0  0
  1  2  1  0  0  0  0
  1  5  1  0  0  0  0
  2  3  1  0  0  0  0
  3  4  1  0  0  0  0
  3 13  1  1  0  0  0
  4  5  1  0  0  0  0
  5  6  1  1  0  0  0
  6  7  2  0  0  0  0
  6  8  1  0  0  0  0
  8  9  1  0  0  0  0
  8 17  1  0  0  0  0
  9 10  1  0  0  0  0
 10 11  2  0  0  0  0
 10 12  1  0  0  0  0
 12 18  1  0  0  0  0
 12 19  1  0  0  0  0
 13 14  1  0  0  0  0
 13 15  1  0  0  0  0
 13 16  1  0  0  0  0
M  CHG  1  13   1
M  END
>  <CHROM.0>
-176.24503414,-65.24360901,-71.50695942,-41.08002194,-61.44725135,-50.36965391
-174.93550097,-60.36291747,-167.53019646

>  <CHROM.1>
166.78288646,-65.41560244,145.83179201,-122.95732916,101.35770736,-28.72659037
15.98135766,-15.47235857,2.78732087,-0.66099087,1.42642950

>  <Name>
P133035570

>  <RI>
0

>  <Rbt.Current_Directory>
/home/fstefaniak/projects/zuza/docking/adenine/4TZX

>  <Rbt.Executable>
rbdock ($Id: //depot/dev/client3/rdock/2013.1/src/exe/rbdock.cxx#4 $)

>  <Rbt.Library>
libRbt.so (2013.1, Build901 2013/11/27)

>  <Rbt.Parameter_File>
/home/fstefaniak/progs/rDock//data/scripts/dock_solv.prm

>  <Rbt.Receptor>
4tzx.prm

>  <SCORE>
-57.4659

>  <SCORE.INTER>
-42.1561

>  <SCORE.INTER.CONST>
1

>  <SCORE.INTER.POLAR>
-7.35815

>  <SCORE.INTER.ROT>
4

>  <SCORE.INTER.SOLV>
22.9484

>  <SCORE.INTER.VDW>
-17.4931

>  <SCORE.INTER.norm>
-3.24278

>  <SCORE.INTRA>
1.7009

>  <SCORE.INTRA.DIHEDRAL>
4.46632

>  <SCORE.INTRA.DIHEDRAL.0>
3.12305

>  <SCORE.INTRA.POLAR>
0

>  <SCORE.INTRA.POLAR.0>
0

>  <SCORE.INTRA.REPUL>
0

>  <SCORE.INTRA.REPUL.0>
0

>  <SCORE.INTRA.SOLV>
-0.452966

>  <SCORE.INTRA.SOLV.lig_0>
-38.6798

>  <SCORE.INTRA.VDW>
-0.30578

>  <SCORE.INTRA.VDW.0>
-0.586582

>  <SCORE.INTRA.norm>
0.130838

>  <SCORE.RESTR>
0

>  <SCORE.RESTR.CAVITY>
0

>  <SCORE.RESTR.norm>
0

>  <SCORE.SYSTEM>
-17.0106

>  <SCORE.SYSTEM.CONST>
0

>  <SCORE.SYSTEM.DIHEDRAL>
5.70986

>  <SCORE.SYSTEM.POLAR>
-2.53026

>  <SCORE.SYSTEM.SOLV>
0.163715

>  <SCORE.SYSTEM.VDW>
-4.86408

>  <SCORE.SYSTEM.norm>
-1.30851

>  <SCORE.heavy>
13

>  <SCORE.norm>
-4.42045

$$$$
P133035570
 OpenBabel12072022113D
libRbt.so/2013.1/901 2013/11/27
 19 19  0  0  0  0  0  0  0  0999 V2000
  -30.2710   17.8423  -16.5826 C   0  0  0  0  0  0  0  0  0  0  0  0
  -31.4439   17.9764  -15.6006 C   0  0  0  0  0  0  0  0  0  0  0  0
  -30.9240   17.4657  -14.2607 C   0  0  1  0  0  0  0  0  0  0  0  0
  -29.4080   17.5540  -14.3654 C   0  0  0  0  0  0  0  0  0  0  0  0
  -29.1477   17.1370  -15.8146 C   0  0  1  0  0  0  0  0  0  0  0  0
  -29.2216   15.6232  -15.9847 C   0  0  0  0  0  0  0  0  0  0  0  0
  -30.2032   14.9812  -15.6240 O   0  0  0  0  0  0  0  0  0  0  0  0
  -28.1227   15.0704  -16.5940 N   0  0  0  0  0  0  0  0  0  0  0  0
  -27.5088   13.8722  -16.0453 C   0  0  0  0  0  0  0  0  0  0  0  0
  -26.0026   13.8877  -16.3262 C   0  0  0  0  0  0  0  0  0  0  0  0
  -25.3860   12.9341  -16.7966 O   0  0  0  0  0  0  0  0  0  0  0  0
  -25.3691   15.0606  -16.0350 N   0  0  0  0  0  0  0  0  0  0  0  0
  -31.4201   18.2968  -13.1453 N   0  3  0  0  0  0  0  0  0  0  0  0
  -32.4249   18.5003  -13.2196 H   0  0  0  0  0  0  0  0  0  0  0  0
  -31.2612   17.8309  -12.2420 H   0  0  0  0  0  0  0  0  0  0  0  0
  -30.9200   19.1953  -13.1114 H   0  0  0  0  0  0  0  0  0  0  0  0
  -28.0143   15.1992  -17.5931 H   0  0  0  0  0  0  0  0  0  0  0  0
  -25.8283   15.8570  -15.6129 H   0  0  0  0  0  0  0  0  0  0  0  0
  -24.3716   15.1184  -16.2007 H   0  0  0  0  0  0  0  0  0  0  0  0
  1  2  1  0  0  0  0
  1  5  1  0  0  0  0
  2  3  1  0  0  0  0
  3  4  1  0  0  0  0
  3 13  1  1  0  0  0
  4  5  1  0  0  0  0
  5  6  1  1  0  0  0
  6  7  2  0  0  0  0
  6  8  1  0  0  0  0
  8  9  1  0  0  0  0
  8 17  1  0  0  0  0
  9 10  1  0  0  0  0
 10 11  2  0  0  0  0
 10 12  1  0  0  0  0
 12 18  1  0  0  0  0
 12 19  1  0  0  0  0
 13 14  1  0  0  0  0
 13 15  1  0  0  0  0
 13 16  1  0  0  0  0
M  CHG  1  13   1
M  END
>  <CHROM.0>
-59.29960019,-68.95914056,-44.73656213,-43.82335528,-176.25947238,-61.49485102
-61.62063194,-51.41396509,-166.96817115

>  <CHROM.1>
45.63501956,-60.49141722,134.16176857,-148.58956208,-131.55986894,-28.79346370
15.97792828,-15.60493549,2.45409215,-0.26075195,0.74608693

>  <Name>
P133035570

>  <RI>
0

>  <Rbt.Current_Directory>
/home/fstefaniak/projects/zuza/docking/adenine/4TZX

>  <Rbt.Executable>
rbdock ($Id: //depot/dev/client3/rdock/2013.1/src/exe/rbdock.cxx#4 $)

>  <Rbt.Library>
libRbt.so (2013.1, Build901 2013/11/27)

>  <Rbt.Parameter_File>
/home/fstefaniak/progs/rDock//data/scripts/dock_solv.prm

>  <Rbt.Receptor>
4tzx.prm

>  <SCORE>
-56.6452

>  <SCORE.INTER>
-37.3523

>  <SCORE.INTER.CONST>
1

>  <SCORE.INTER.POLAR>
-5.715

>  <SCORE.INTER.ROT>
4

>  <SCORE.INTER.SOLV>
22.0087

>  <SCORE.INTER.VDW>
-19.4544

>  <SCORE.INTER.norm>
-2.87326

>  <SCORE.INTRA>
1.22478

>  <SCORE.INTRA.DIHEDRAL>
3.67488

>  <SCORE.INTRA.DIHEDRAL.0>
3.12305

>  <SCORE.INTRA.POLAR>
0

>  <SCORE.INTRA.POLAR.0>
0

>  <SCORE.INTRA.REPUL>
0

>  <SCORE.INTRA.REPUL.0>
0

>  <SCORE.INTRA.SOLV>
-0.271536

>  <SCORE.INTRA.SOLV.lig_0>
-38.6798

>  <SCORE.INTRA.VDW>
-0.476894

>  <SCORE.INTRA.VDW.0>
-0.586582

>  <SCORE.INTRA.norm>
0.0942137

>  <SCORE.RESTR>
0

>  <SCORE.RESTR.CAVITY>
0

>  <SCORE.RESTR.norm>
0

>  <SCORE.SYSTEM>
-20.5177

>  <SCORE.SYSTEM.CONST>
0

>  <SCORE.SYSTEM.DIHEDRAL>
5.85169

>  <SCORE.SYSTEM.POLAR>
-3.19376

>  <SCORE.SYSTEM.SOLV>
0.0420415

>  <SCORE.SYSTEM.VDW>
-4.99714

>  <SCORE.SYSTEM.norm>
-1.57828

>  <SCORE.heavy>
13

>  <SCORE.norm>
-4.35732

$$$$
P133035570
 OpenBabel12072022113D
libRbt.so/2013.1/901 2013/11/27
 19 19  0  0  0  0  0  0  0  0999 V2000
  -30.2017   17.8760  -16.5763 C   0  0  0  0  0  0  0  0  0  0  0  0
  -31.3643   18.0146  -15.5826 C   0  0  0  0  0  0  0  0  0  0  0  0
  -30.8434   17.4715  -14.2559 C   0  0  1  0  0  0  0  0  0  0  0  0
  -29.3269   17.5339  -14.3714 C   0  0  0  0  0  0  0  0  0  0  0  0
  -29.0857   17.1373  -15.8296 C   0  0  1  0  0  0  0  0  0  0  0  0
  -29.1887   15.6281  -16.0249 C   0  0  0  0  0  0  0  0  0  0  0  0
  -30.2048   15.0077  -15.7278 O   0  0  0  0  0  0  0  0  0  0  0  0
  -28.0723   15.0545  -16.5807 N   0  0  0  0  0  0  0  0  0  0  0  0
  -27.6458   13.7296  -16.1606 C   0  0  0  0  0  0  0  0  0  0  0  0
  -26.1194   13.6266  -16.2451 C   0  0  0  0  0  0  0  0  0  0  0  0
  -25.5189   12.5879  -16.5120 O   0  0  0  0  0  0  0  0  0  0  0  0
  -25.4449   14.7913  -16.0205 N   0  0  0  0  0  0  0  0  0  0  0  0
  -31.3154   18.2921  -13.1225 N   0  3  0  0  0  0  0  0  0  0  0  0
  -30.8318   19.1970  -13.0604 H   0  0  0  0  0  0  0  0  0  0  0  0
  -32.3236   18.4810  -13.2012 H   0  0  0  0  0  0  0  0  0  0  0  0
  -31.1715   17.7980  -12.2315 H   0  0  0  0  0  0  0  0  0  0  0  0
  -27.8212   15.3153  -17.5271 H   0  0  0  0  0  0  0  0  0  0  0  0
  -25.8947   15.6596  -15.7616 H   0  0  0  0  0  0  0  0  0  0  0  0
  -24.4331   14.7728  -16.0623 H   0  0  0  0  0  0  0  0  0  0  0  0
  1  2  1  0  0  0  0
  1  5  1  0  0  0  0
  2  3  1  0  0  0  0
  3  4  1  0  0  0  0
  3 13  1  1  0  0  0
  4  5  1  0  0  0  0
  5  6  1  1  0  0  0
  6  7  2  0  0  0  0
  6  8  1  0  0  0  0
  8  9  1  0  0  0  0
  8 17  1  0  0  0  0
  9 10  1  0  0  0  0
 10 11  2  0  0  0  0
 10 12  1  0  0  0  0
 12 18  1  0  0  0  0
 12 19  1  0  0  0  0
 13 14  1  0  0  0  0
 13 15  1  0  0  0  0
 13 16  1  0  0  0  0
M  CHG  1  13   1
M  END
>  <CHROM.0>
-62.92230172,-67.46918275,-44.43086415,-43.76320408,-63.19138258,-171.94760312
-70.26125846,-58.60105513,-168.99312194

>  <CHROM.1>
-73.86795849,-56.84347938,144.09548682,-148.10724334,-147.91211605,-28.78563948
15.90313008,-15.59023788,2.46130319,-0.39589911,0.83869217

>  <Name>
P133035570

>  <RI>
0

>  <Rbt.Current_Directory>
/home/fstefaniak/projects/zuza/docking/adenine/4TZX

>  <Rbt.Executable>
rbdock ($Id: //depot/dev/client3/rdock/2013.1/src/exe/rbdock.cxx#4 $)

>  <Rbt.Library>
libRbt.so (2013.1, Build901 2013/11/27)

>  <Rbt.Parameter_File>
/home/fstefaniak/progs/rDock//data/scripts/dock_solv.prm

>  <Rbt.Receptor>
4tzx.prm

>  <SCORE>
-56.5667

>  <SCORE.INTER>
-37.5505

>  <SCORE.INTER.CONST>
1

>  <SCORE.INTER.POLAR>
-5.81093

>  <SCORE.INTER.ROT>
4

>  <SCORE.INTER.SOLV>
21.2778

>  <SCORE.INTER.VDW>
-19.0231

>  <SCORE.INTER.norm>
-2.8885

>  <SCORE.INTRA>
1.37492

>  <SCORE.INTRA.DIHEDRAL>
3.69635

>  <SCORE.INTRA.DIHEDRAL.0>
3.12305

>  <SCORE.INTRA.POLAR>
0

>  <SCORE.INTRA.POLAR.0>
0

>  <SCORE.INTRA.REPUL>
0

>  <SCORE.INTRA.REPUL.0>
0

>  <SCORE.INTRA.SOLV>
-0.210738

>  <SCORE.INTRA.SOLV.lig_0>
-38.6798

>  <SCORE.INTRA.VDW>
-0.367881

>  <SCORE.INTRA.VDW.0>
-0.586582

>  <SCORE.INTRA.norm>
0.105763

>  <SCORE.RESTR>
0

>  <SCORE.RESTR.CAVITY>
0

>  <SCORE.RESTR.norm>
0

>  <SCORE.SYSTEM>
-20.3912

>  <SCORE.SYSTEM.CONST>
0

>  <SCORE.SYSTEM.DIHEDRAL>
6.01651

>  <SCORE.SYSTEM.POLAR>
-3.15962

>  <SCORE.SYSTEM.SOLV>
0.0714035

>  <SCORE.SYSTEM.VDW>
-5.09136

>  <SCORE.SYSTEM.norm>
-1.56855

>  <SCORE.heavy>
13

>  <SCORE.norm>
-4.35129

$$$$
P133055839
 OpenBabel12072022113D
libRbt.so/2013.1/901 2013/11/27
 14 14  0  0  0  0  0  0  0  0999 V2000
  -29.6188   16.5146  -17.1455 C   0  0  0  0  0  0  0  0  0  0  0  0
  -29.9747   17.5817  -18.1819 C   0  0  0  0  0  0  0  0  0  0  0  0
  -30.3116   18.8185  -17.3661 C   0  0  2  0  0  0  0  0  0  0  0  0
  -30.9862   18.2805  -16.1189 C   0  0  0  0  0  0  0  0  0  0  0  0
  -30.2299   16.9837  -15.8193 C   0  0  2  0  0  0  0  0  0  0  0  0
  -29.2493   17.1341  -14.6553 C   0  0  0  0  0  0  0  0  0  0  0  0
  -28.0390   16.9988  -14.8678 O   0  0  0  0  0  0  0  0  0  0  0  0
  -29.6933   17.3159  -13.3697 N   0  0  0  0  0  0  0  0  0  0  0  0
  -30.7304   18.1758  -13.0755 O   0  5  0  0  0  0  0  0  0  0  0  0
  -31.2436   19.6959  -18.1119 N   0  3  0  0  0  0  0  0  0  0  0  0
  -31.5811   20.4769  -17.5427 H   0  0  0  0  0  0  0  0  0  0  0  0
  -30.7572   20.0642  -18.9375 H   0  0  0  0  0  0  0  0  0  0  0  0
  -32.0406   19.1410  -18.4418 H   0  0  0  0  0  0  0  0  0  0  0  0
  -28.9727   17.2572  -12.6543 H   0  0  0  0  0  0  0  0  0  0  0  0
  1  2  1  0  0  0  0
  1  5  1  0  0  0  0
  2  3  1  0  0  0  0
  3  4  1  0  0  0  0
  3 10  1  6  0  0  0
  4  5  1  0  0  0  0
  5  6  1  1  0  0  0
  6  7  2  0  0  0  0
  6  8  1  0  0  0  0
  8  9  1  0  0  0  0
  8 14  1  0  0  0  0
 10 11  1  0  0  0  0
 10 12  1  0  0  0  0
 10 13  1  0  0  0  0
M  CHG  2   9  -1  10   1
M  END
>  <CHROM.0>
-58.99311303,60.86293405,-61.65418836,-43.68679375,-55.96673880,-66.45231240
-68.38655599,-174.55712047,-168.68753308

>  <CHROM.1>
172.78013262,6.64573686,-43.07672040,-30.02064974,17.79331379,-15.85476393
-1.92618915,-0.79589409,1.60358690

>  <Name>
P133055839

>  <RI>
0

>  <Rbt.Current_Directory>
/home/fstefaniak/projects/zuza/docking/adenine/4TZX

>  <Rbt.Executable>
rbdock ($Id: //depot/dev/client3/rdock/2013.1/src/exe/rbdock.cxx#4 $)

>  <Rbt.Library>
libRbt.so (2013.1, Build901 2013/11/27)

>  <Rbt.Parameter_File>
/home/fstefaniak/progs/rDock//data/scripts/dock_solv.prm

>  <Rbt.Receptor>
4tzx.prm

>  <SCORE>
-44.7323

>  <SCORE.INTER>
-23.4347

>  <SCORE.INTER.CONST>
1

>  <SCORE.INTER.POLAR>
-3.6487

>  <SCORE.INTER.ROT>
2

>  <SCORE.INTER.SOLV>
31.3612

>  <SCORE.INTER.VDW>
-18.8479

>  <SCORE.INTER.norm>
-2.34347

>  <SCORE.INTRA>
-1.06999

>  <SCORE.INTRA.DIHEDRAL>
0.158876

>  <SCORE.INTRA.DIHEDRAL.0>
1.19454

>  <SCORE.INTRA.POLAR>
0

>  <SCORE.INTRA.POLAR.0>
0

>  <SCORE.INTRA.REPUL>
0

>  <SCORE.INTRA.REPUL.0>
0

>  <SCORE.INTRA.SOLV>
-3.82773

>  <SCORE.INTRA.SOLV.lig_0>
-54.2655

>  <SCORE.INTRA.VDW>
0.764441

>  <SCORE.INTRA.VDW.0>
-1.02733

>  <SCORE.INTRA.norm>
-0.106999

>  <SCORE.RESTR>
0

>  <SCORE.RESTR.CAVITY>
0

>  <SCORE.RESTR.norm>
0

>  <SCORE.SYSTEM>
-20.2276

>  <SCORE.SYSTEM.CONST>
0

>  <SCORE.SYSTEM.DIHEDRAL>
4.61961

>  <SCORE.SYSTEM.POLAR>
-3.05314

>  <SCORE.SYSTEM.SOLV>
0.106814

>  <SCORE.SYSTEM.VDW>
-4.8834

>  <SCORE.SYSTEM.norm>
-2.02276

>  <SCORE.heavy>
10

>  <SCORE.norm>
-4.47323

$$$$
P133055839
 OpenBabel12072022113D
libRbt.so/2013.1/901 2013/11/27
 14 14  0  0  0  0  0  0  0  0999 V2000
  -29.8305   16.5125  -16.0226 C   0  0  0  0  0  0  0  0  0  0  0  0
  -29.7217   17.0118  -17.4642 C   0  0  0  0  0  0  0  0  0  0  0  0
  -30.5475   18.2869  -17.4971 C   0  0  2  0  0  0  0  0  0  0  0  0
  -31.7001   18.0191  -16.5486 C   0  0  0  0  0  0  0  0  0  0  0  0
  -31.0708   17.1896  -15.4264 C   0  0  2  0  0  0  0  0  0  0  0  0
  -30.8319   18.0088  -14.1571 C   0  0  0  0  0  0  0  0  0  0  0  0
  -31.6033   18.9362  -13.8865 O   0  0  0  0  0  0  0  0  0  0  0  0
  -29.7266   17.7984  -13.3717 N   0  0  0  0  0  0  0  0  0  0  0  0
  -28.5177   17.4105  -13.9102 O   0  5  0  0  0  0  0  0  0  0  0  0
  -31.0600   18.5398  -18.8639 N   0  3  0  0  0  0  0  0  0  0  0  0
  -31.7231   19.3191  -18.8919 H   0  0  0  0  0  0  0  0  0  0  0  0
  -30.2648   18.7498  -19.4785 H   0  0  0  0  0  0  0  0  0  0  0  0
  -31.5121   17.6904  -19.2188 H   0  0  0  0  0  0  0  0  0  0  0  0
  -29.9220   17.4212  -12.4477 H   0  0  0  0  0  0  0  0  0  0  0  0
  1  2  1  0  0  0  0
  1  5  1  0  0  0  0
  2  3  1  0  0  0  0
  3  4  1  0  0  0  0
  3 10  1  6  0  0  0
  4  5  1  0  0  0  0
  5  6  1  1  0  0  0
  6  7  2  0  0  0  0
  6  8  1  0  0  0  0
  8  9  1  0  0  0  0
  8 14  1  0  0  0  0
 10 11  1  0  0  0  0
 10 12  1  0  0  0  0
 10 13  1  0  0  0  0
M  CHG  2   9  -1  10   1
M  END
>  <CHROM.0>
-61.19180541,-63.16128321,-64.55519113,-42.75509582,-57.78899851,-65.29658826
-68.13851039,-58.09146766,-168.49816904

>  <CHROM.1>
172.18815357,154.39726686,32.91053145,-30.45103779,17.79406086,-15.72652166
-1.79766603,-0.57558023,1.48989499

>  <Name>
P133055839

>  <RI>
0

>  <Rbt.Current_Directory>
/home/fstefaniak/projects/zuza/docking/adenine/4TZX

>  <Rbt.Executable>
rbdock ($Id: //depot/dev/client3/rdock/2013.1/src/exe/rbdock.cxx#4 $)

>  <Rbt.Library>
libRbt.so (2013.1, Build901 2013/11/27)

>  <Rbt.Parameter_File>
/home/fstefaniak/progs/rDock//data/scripts/dock_solv.prm

>  <Rbt.Receptor>
4tzx.prm

>  <SCORE>
-42.8714

>  <SCORE.INTER>
-24.0152

>  <SCORE.INTER.CONST>
1

>  <SCORE.INTER.POLAR>
-3.32232

>  <SCORE.INTER.ROT>
2

>  <SCORE.INTER.SOLV>
28.5049

>  <SCORE.INTER.VDW>
-19.3707

>  <SCORE.INTER.norm>
-2.40152

>  <SCORE.INTRA>
2.30369

>  <SCORE.INTRA.DIHEDRAL>
2.01846

>  <SCORE.INTRA.DIHEDRAL.0>
1.19454

>  <SCORE.INTRA.POLAR>
0

>  <SCORE.INTRA.POLAR.0>
0

>  <SCORE.INTRA.REPUL>
0

>  <SCORE.INTRA.REPUL.0>
0

>  <SCORE.INTRA.SOLV>
-1.95519

>  <SCORE.INTRA.SOLV.lig_0>
-54.2655

>  <SCORE.INTRA.VDW>
2.27206

>  <SCORE.INTRA.VDW.0>
-1.02733

>  <SCORE.INTRA.norm>
0.230369

>  <SCORE.RESTR>
0

>  <SCORE.RESTR.CAVITY>
0

>  <SCORE.RESTR.norm>
0

>  <SCORE.SYSTEM>
-21.1599

>  <SCORE.SYSTEM.CONST>
0

>  <SCORE.SYSTEM.DIHEDRAL>
4.65059

>  <SCORE.SYSTEM.POLAR>
-3.0563

>  <SCORE.SYSTEM.SOLV>
0.176068

>  <SCORE.SYSTEM.VDW>
-5.52782

>  <SCORE.SYSTEM.norm>
-2.11599

>  <SCORE.heavy>
10

>  <SCORE.norm>
-4.28714

$$$$
P133055839
 OpenBabel12072022113D
libRbt.so/2013.1/901 2013/11/27
 14 14  0  0  0  0  0  0  0  0999 V2000
  -29.1301   15.0544  -16.6190 C   0  0  0  0  0  0  0  0  0  0  0  0
  -27.9966   14.0362  -16.7526 C   0  0  0  0  0  0  0  0  0  0  0  0
  -26.7740   14.7395  -16.1873 C   0  0  2  0  0  0  0  0  0  0  0  0
  -26.9513   16.1919  -16.5862 C   0  0  0  0  0  0  0  0  0  0  0  0
  -28.4598   16.4258  -16.4706 C   0  0  2  0  0  0  0  0  0  0  0  0
  -28.8349   17.2134  -15.2143 C   0  0  0  0  0  0  0  0  0  0  0  0
  -27.9815   17.3870  -14.3369 O   0  0  0  0  0  0  0  0  0  0  0  0
  -30.1208   17.6415  -15.0001 N   0  0  0  0  0  0  0  0  0  0  0  0
  -30.9565   17.0072  -14.1050 O   0  5  0  0  0  0  0  0  0  0  0  0
  -25.5351   14.1932  -16.7884 N   0  3  0  0  0  0  0  0  0  0  0  0
  -25.4822   14.3684  -17.7956 H   0  0  0  0  0  0  0  0  0  0  0  0
  -24.7276   14.6274  -16.3265 H   0  0  0  0  0  0  0  0  0  0  0  0
  -25.4893   13.1839  -16.6119 H   0  0  0  0  0  0  0  0  0  0  0  0
  -30.5866   18.0275  -15.8176 H   0  0  0  0  0  0  0  0  0  0  0  0
  1  2  1  0  0  0  0
  1  5  1  0  0  0  0
  2  3  1  0  0  0  0
  3  4  1  0  0  0  0
  3 10  1  6  0  0  0
  4  5  1  0  0  0  0
  5  6  1  1  0  0  0
  6  7  2  0  0  0  0
  6  8  1  0  0  0  0
  8  9  1  0  0  0  0
  8 14  1  0  0  0  0
 10 11  1  0  0  0  0
 10 12  1  0  0  0  0
 10 13  1  0  0  0  0
M  CHG  2   9  -1  10   1
M  END
>  <CHROM.0>
-57.84797535,-62.67904994,-71.86754136,-42.32820041,-58.38428990,-60.81988422
-169.17243077,-174.11500187,-168.54073104

>  <CHROM.1>
64.09598505,111.25187034,103.69503449,-28.26061232,15.98444982,-15.78685974
0.77796941,-0.06025580,-2.56385405

>  <Name>
P133055839

>  <RI>
0

>  <Rbt.Current_Directory>
/home/fstefaniak/projects/zuza/docking/adenine/4TZX

>  <Rbt.Executable>
rbdock ($Id: //depot/dev/client3/rdock/2013.1/src/exe/rbdock.cxx#4 $)

>  <Rbt.Library>
libRbt.so (2013.1, Build901 2013/11/27)

>  <Rbt.Parameter_File>
/home/fstefaniak/progs/rDock//data/scripts/dock_solv.prm

>  <Rbt.Receptor>
4tzx.prm

>  <SCORE>
-42.5304

>  <SCORE.INTER>
-20.3483

>  <SCORE.INTER.CONST>
1

>  <SCORE.INTER.POLAR>
-3.96143

>  <SCORE.INTER.ROT>
2

>  <SCORE.INTER.SOLV>
23.7855

>  <SCORE.INTER.VDW>
-13.2226

>  <SCORE.INTER.norm>
-2.03483

>  <SCORE.INTRA>
-1.68333

>  <SCORE.INTRA.DIHEDRAL>
0.154174

>  <SCORE.INTRA.DIHEDRAL.0>
1.19454

>  <SCORE.INTRA.POLAR>
0

>  <SCORE.INTRA.POLAR.0>
0

>  <SCORE.INTRA.REPUL>
0

>  <SCORE.INTRA.REPUL.0>
0

>  <SCORE.INTRA.SOLV>
-5.0658

>  <SCORE.INTRA.SOLV.lig_0>
-54.2655

>  <SCORE.INTRA.VDW>
0.772479

>  <SCORE.INTRA.VDW.0>
-1.02733

>  <SCORE.INTRA.norm>
-0.168333

>  <SCORE.RESTR>
0

>  <SCORE.RESTR.CAVITY>
0

>  <SCORE.RESTR.norm>
0

>  <SCORE.SYSTEM>
-20.4988

>  <SCORE.SYSTEM.CONST>
0

>  <SCORE.SYSTEM.DIHEDRAL>
5.46598

>  <SCORE.SYSTEM.POLAR>
-3.05765

>  <SCORE.SYSTEM.SOLV>
0.031843

>  <SCORE.SYSTEM.VDW>
-5.30628

>  <SCORE.SYSTEM.norm>
-2.04988

>  <SCORE.heavy>
10

>  <SCORE.norm>
-4.25304

$$$$
P133406437
 OpenBabel12072022113D
libRbt.so/2013.1/901 2013/11/27
 13 13  0  0  0  0  0  0  0  0999 V2000
  -30.5635   18.8522  -17.2488 C   0  0  0  0  0  0  0  0  0  0  0  0
  -31.0269   17.5449  -16.6225 C   0  0  0  0  0  0  0  0  0  0  0  0
  -30.3853   17.2830  -15.3365 N   0  0  0  0  0  0  0  0  0  0  0  0
  -29.2433   16.3218  -15.2626 C   0  0  0  0  0  0  0  0  0  0  0  0
  -29.3832   15.0507  -16.1437 C   0  0  0  0  0  0  0  0  0  0  0  0
  -27.9220   15.1147  -16.3808 N   0  0  0  0  0  0  0  0  0  0  0  0
  -27.9878   16.5745  -16.1383 C   0  0  0  0  0  0  0  0  0  0  0  0
  -30.8670   17.9783  -14.2414 C   0  0  0  0  0  0  0  0  0  0  0  0
  -31.8467   18.7154  -14.2532 O   0  0  0  0  0  0  0  0  0  0  0  0
  -30.1832   17.8001  -13.0826 N   0  0  0  0  0  0  0  0  0  0  0  0
  -27.6358   14.8514  -17.3233 H   0  0  0  0  0  0  0  0  0  0  0  0
  -29.4530   18.4640  -12.8746 H   0  0  0  0  0  0  0  0  0  0  0  0
  -30.7931   17.5972  -12.3002 H   0  0  0  0  0  0  0  0  0  0  0  0
  1  2  1  0  0  0  0
  2  3  1  0  0  0  0
  3  4  1  0  0  0  0
  3  8  1  0  0  0  0
  4  5  1  0  0  0  0
  4  7  1  0  0  0  0
  5  6  1  0  0  0  0
  6  7  1  0  0  0  0
  6 11  1  0  0  0  0
  8  9  2  0  0  0  0
  8 10  1  0  0  0  0
 10 12  1  0  0  0  0
 10 13  1  0  0  0  0
M  END
>  <CHROM.0>
-57.98625037,-62.83013303,-66.95699644,-43.27891135,-174.46646316,-59.95164765
-66.65455266,-57.16218226,-168.38487801

>  <CHROM.1>
-100.84007457,-39.61800381,93.18072237,-29.94994519,17.14820364,-15.45822190
2.76690521,-0.82318625,1.64654816

>  <Name>
P133406437

>  <RI>
0

>  <Rbt.Current_Directory>
/home/fstefaniak/projects/zuza/docking/adenine/4TZX

>  <Rbt.Executable>
rbdock ($Id: //depot/dev/client3/rdock/2013.1/src/exe/rbdock.cxx#4 $)

>  <Rbt.Library>
libRbt.so (2013.1, Build901 2013/11/27)

>  <Rbt.Parameter_File>
/home/fstefaniak/progs/rDock//data/scripts/dock_solv.prm

>  <Rbt.Receptor>
4tzx.prm

>  <SCORE>
-46.2902

>  <SCORE.INTER>
-24.8566

>  <SCORE.INTER.CONST>
1

>  <SCORE.INTER.POLAR>
-3.45136

>  <SCORE.INTER.ROT>
3

>  <SCORE.INTER.SOLV>
12.1724

>  <SCORE.INTER.VDW>
-14.724

>  <SCORE.INTER.norm>
-2.48566

>  <SCORE.INTRA>
-0.189972

>  <SCORE.INTRA.DIHEDRAL>
-0.101944

>  <SCORE.INTRA.DIHEDRAL.0>
2.92104

>  <SCORE.INTRA.POLAR>
0

>  <SCORE.INTRA.POLAR.0>
0

>  <SCORE.INTRA.REPUL>
0

>  <SCORE.INTRA.REPUL.0>
0

>  <SCORE.INTRA.SOLV>
-0.206819

>  <SCORE.INTRA.SOLV.lig_0>
-14.9407

>  <SCORE.INTRA.VDW>
-0.0355905

>  <SCORE.INTRA.VDW.0>
0.0640313

>  <SCORE.INTRA.norm>
-0.0189972

>  <SCORE.RESTR>
0

>  <SCORE.RESTR.CAVITY>
0

>  <SCORE.RESTR.norm>
0

>  <SCORE.SYSTEM>
-21.2437

>  <SCORE.SYSTEM.CONST>
0

>  <SCORE.SYSTEM.DIHEDRAL>
4.62479

>  <SCORE.SYSTEM.POLAR>
-3.06163

>  <SCORE.SYSTEM.SOLV>
0.00735824

>  <SCORE.SYSTEM.VDW>
-5.50108

>  <SCORE.SYSTEM.norm>
-2.12437

>  <SCORE.heavy>
10

>  <SCORE.norm>
-4.62902

$$$$
P133406437
 OpenBabel12072022113D
libRbt.so/2013.1/901 2013/11/27
 13 13  0  0  0  0  0  0  0  0999 V2000
  -30.5685   18.9214  -17.2431 C   0  0  0  0  0  0  0  0  0  0  0  0
  -30.9433   17.5527  -16.6936 C   0  0  0  0  0  0  0  0  0  0  0  0
  -30.3292   17.2842  -15.3956 N   0  0  0  0  0  0  0  0  0  0  0  0
  -29.1853   16.3268  -15.3033 C   0  0  0  0  0  0  0  0  0  0  0  0
  -29.3162   15.0455  -16.1711 C   0  0  0  0  0  0  0  0  0  0  0  0
  -27.8535   15.1107  -16.3991 N   0  0  0  0  0  0  0  0  0  0  0  0
  -27.9246   16.5729  -16.1734 C   0  0  0  0  0  0  0  0  0  0  0  0
  -30.8375   17.9700  -14.3066 C   0  0  0  0  0  0  0  0  0  0  0  0
  -31.8195   18.7036  -14.3349 O   0  0  0  0  0  0  0  0  0  0  0  0
  -30.1786   17.7863  -13.1343 N   0  0  0  0  0  0  0  0  0  0  0  0
  -27.5604   14.8375  -17.3366 H   0  0  0  0  0  0  0  0  0  0  0  0
  -29.4343   18.4325  -12.9208 H   0  0  0  0  0  0  0  0  0  0  0  0
  -30.8070   17.6086  -12.3605 H   0  0  0  0  0  0  0  0  0  0  0  0
  1  2  1  0  0  0  0
  2  3  1  0  0  0  0
  3  4  1  0  0  0  0
  3  8  1  0  0  0  0
  4  5  1  0  0  0  0
  4  7  1  0  0  0  0
  5  6  1  0  0  0  0
  6  7  1  0  0  0  0
  6 11  1  0  0  0  0
  8  9  2  0  0  0  0
  8 10  1  0  0  0  0
 10 12  1  0  0  0  0
 10 13  1  0  0  0  0
M  END
>  <CHROM.0>
-62.50911906,-62.83016012,-64.36794404,-43.60855257,-178.22758379,-55.56996122
-68.61829593,-175.94755081,-168.71907138

>  <CHROM.1>
-105.96025262,-40.97942834,91.12068453,-29.90553602,17.15215579,-15.50248803
2.80936118,-0.82315461,1.66929768

>  <Name>
P133406437

>  <RI>
0

>  <Rbt.Current_Directory>
/home/fstefaniak/projects/zuza/docking/adenine/4TZX

>  <Rbt.Executable>
rbdock ($Id: //depot/dev/client3/rdock/2013.1/src/exe/rbdock.cxx#4 $)

>  <Rbt.Library>
libRbt.so (2013.1, Build901 2013/11/27)

>  <Rbt.Parameter_File>
/home/fstefaniak/progs/rDock//data/scripts/dock_solv.prm

>  <Rbt.Receptor>
4tzx.prm

>  <SCORE>
-46.2391

>  <SCORE.INTER>
-24.8938

>  <SCORE.INTER.CONST>
1

>  <SCORE.INTER.POLAR>
-3.40405

>  <SCORE.INTER.ROT>
3

>  <SCORE.INTER.SOLV>
12.0695

>  <SCORE.INTER.VDW>
-14.8722

>  <SCORE.INTER.norm>
-2.48938

>  <SCORE.INTRA>
-0.0989826

>  <SCORE.INTRA.DIHEDRAL>
-0.0938077

>  <SCORE.INTRA.DIHEDRAL.0>
2.92104

>  <SCORE.INTRA.POLAR>
0

>  <SCORE.INTRA.POLAR.0>
0

>  <SCORE.INTRA.REPUL>
0

>  <SCORE.INTRA.REPUL.0>
0

>  <SCORE.INTRA.SOLV>
-0.206305

>  <SCORE.INTRA.SOLV.lig_0>
-14.9407

>  <SCORE.INTRA.VDW>
0.0510735

>  <SCORE.INTRA.VDW.0>
0.0640313

>  <SCORE.INTRA.norm>
-0.00989826

>  <SCORE.RESTR>
0

>  <SCORE.RESTR.CAVITY>
0

>  <SCORE.RESTR.norm>
0

>  <SCORE.SYSTEM>
-21.2464

>  <SCORE.SYSTEM.CONST>
0

>  <SCORE.SYSTEM.DIHEDRAL>
4.56074

>  <SCORE.SYSTEM.POLAR>
-3.04513

>  <SCORE.SYSTEM.SOLV>
-0.131779

>  <SCORE.SYSTEM.VDW>
-5.49011

>  <SCORE.SYSTEM.norm>
-2.12464

>  <SCORE.heavy>
10

>  <SCORE.norm>
-4.62391

$$$$
P133406437
 OpenBabel12072022113D
libRbt.so/2013.1/901 2013/11/27
 13 13  0  0  0  0  0  0  0  0999 V2000
  -30.5638   18.8920  -17.2837 C   0  0  0  0  0  0  0  0  0  0  0  0
  -30.9930   17.5478  -16.7138 C   0  0  0  0  0  0  0  0  0  0  0  0
  -30.3852   17.2720  -15.4143 N   0  0  0  0  0  0  0  0  0  0  0  0
  -29.2630   16.2898  -15.3171 C   0  0  0  0  0  0  0  0  0  0  0  0
  -29.3908   15.0385  -16.2279 C   0  0  0  0  0  0  0  0  0  0  0  0
  -27.9208   15.0817  -16.4090 N   0  0  0  0  0  0  0  0  0  0  0  0
  -27.9714   16.5375  -16.1402 C   0  0  0  0  0  0  0  0  0  0  0  0
  -30.8784   17.9742  -14.3287 C   0  0  0  0  0  0  0  0  0  0  0  0
  -31.8438   18.7293  -14.3609 O   0  0  0  0  0  0  0  0  0  0  0  0
  -30.2240   17.7815  -13.1554 N   0  0  0  0  0  0  0  0  0  0  0  0
  -27.6039   14.8316  -17.3452 H   0  0  0  0  0  0  0  0  0  0  0  0
  -29.4911   18.4356  -12.9266 H   0  0  0  0  0  0  0  0  0  0  0  0
  -30.8543   17.5815  -12.3886 H   0  0  0  0  0  0  0  0  0  0  0  0
  1  2  1  0  0  0  0
  2  3  1  0  0  0  0
  3  4  1  0  0  0  0
  3  8  1  0  0  0  0
  4  5  1  0  0  0  0
  4  7  1  0  0  0  0
  5  6  1  0  0  0  0
  6  7  1  0  0  0  0
  6 11  1  0  0  0  0
  8  9  2  0  0  0  0
  8 10  1  0  0  0  0
 10 12  1  0  0  0  0
 10 13  1  0  0  0  0
M  END
>  <CHROM.0>
-59.42276549,-63.54159565,-65.67522377,-41.86498257,-59.46441497,-64.47309365
-67.58720852,-56.97490048,-169.86312776

>  <CHROM.1>
-104.70834438,-38.28322814,93.62314865,-29.95254518,17.13956554,-15.52221243
2.80165411,-0.83204762,1.66024520

>  <Name>
P133406437

>  <RI>
0

>  <Rbt.Current_Directory>
/home/fstefaniak/projects/zuza/docking/adenine/4TZX

>  <Rbt.Executable>
rbdock ($Id: //depot/dev/client3/rdock/2013.1/src/exe/rbdock.cxx#4 $)

>  <Rbt.Library>
libRbt.so (2013.1, Build901 2013/11/27)

>  <Rbt.Parameter_File>
/home/fstefaniak/progs/rDock//data/scripts/dock_solv.prm

>  <Rbt.Receptor>
4tzx.prm

>  <SCORE>
-46.0449

>  <SCORE.INTER>
-24.8832

>  <SCORE.INTER.CONST>
1

>  <SCORE.INTER.POLAR>
-3.44996

>  <SCORE.INTER.ROT>
3

>  <SCORE.INTER.SOLV>
12.1192

>  <SCORE.INTER.VDW>
-14.7286

>  <SCORE.INTER.norm>
-2.48832

>  <SCORE.INTRA>
-0.0881509

>  <SCORE.INTRA.DIHEDRAL>
-0.0971637

>  <SCORE.INTRA.DIHEDRAL.0>
2.92104

>  <SCORE.INTRA.POLAR>
0

>  <SCORE.INTRA.POLAR.0>
0

>  <SCORE.INTRA.REPUL>
0

>  <SCORE.INTRA.REPUL.0>
0

>  <SCORE.INTRA.SOLV>
-0.202478

>  <SCORE.INTRA.SOLV.lig_0>
-14.9407

>  <SCORE.INTRA.VDW>
0.0616698

>  <SCORE.INTRA.VDW.0>
0.0640313

>  <SCORE.INTRA.norm>
-0.00881509

>  <SCORE.RESTR>
0

>  <SCORE.RESTR.CAVITY>
0

>  <SCORE.RESTR.norm>
0

>  <SCORE.SYSTEM>
-21.0736

>  <SCORE.SYSTEM.CONST>
0

>  <SCORE.SYSTEM.DIHEDRAL>
4.64289

>  <SCORE.SYSTEM.POLAR>
-3.05063

>  <SCORE.SYSTEM.SOLV>
0.183225

>  <SCORE.SYSTEM.VDW>
-5.48898

>  <SCORE.SYSTEM.norm>
-2.10736

>  <SCORE.heavy>
10

>  <SCORE.norm>
-4.60449

$$$$
P133607560
 OpenBabel12072022113D
libRbt.so/2013.1/901 2013/11/27
 13 13  0  0  0  0  0  0  0  0999 V2000
  -25.6170   11.2502  -16.7696 C   0  0  0  0  0  0  0  0  0  0  0  0
  -26.5984   12.2899  -16.2248 C   0  0  1  0  0  0  0  0  0  0  0  0
  -26.0356   13.7060  -16.3128 C   0  0  0  0  0  0  0  0  0  0  0  0
  -26.9318   14.4411  -17.1853 O   0  0  0  0  0  0  0  0  0  0  0  0
  -28.2356   13.9000  -16.9110 C   0  0  0  0  0  0  0  0  0  0  0  0
  -27.9564   12.3968  -16.9072 C   0  0  1  0  0  0  0  0  0  0  0  0
  -27.8182   12.0011  -18.3603 N   0  3  0  0  0  0  0  0  0  0  0  0
  -28.5961   12.3729  -18.9143 H   0  0  0  0  0  0  0  0  0  0  0  0
  -26.9371   12.3462  -18.7505 H   0  0  0  0  0  0  0  0  0  0  0  0
  -27.8166   10.9722  -18.4144 H   0  0  0  0  0  0  0  0  0  0  0  0
  -27.0216   11.9664  -14.7835 C   0  0  0  0  0  0  0  0  0  0  0  0
  -27.4982   10.8130  -14.6138 O   0  0  0  0  0  0  0  0  0  0  0  0
  -26.7488   12.8494  -13.9329 O   0  5  0  0  0  0  0  0  0  0  0  0
  2  1  1  6  0  0  0
  2  3  1  0  0  0  0
  2  6  1  0  0  0  0
  2 11  1  0  0  0  0
  3  4  1  0  0  0  0
  4  5  1  0  0  0  0
  5  6  1  0  0  0  0
  6  7  1  6  0  0  0
  7  8  1  0  0  0  0
  7  9  1  0  0  0  0
  7 10  1  0  0  0  0
 11 12  2  0  0  0  0
 11 13  1  0  0  0  0
M  CHG  2   7   1  13  -1
M  END
>  <CHROM.0>
-55.92367239,53.53828264,-70.63512435,-43.02317010,-56.70644213,-60.53387360
-167.96204863,-62.90562485,-169.52392498

>  <CHROM.1>
-54.66415377,-159.56536755,-27.05227264,12.55739849,-16.23113140,0.54194988
1.38005808,3.06259554

>  <Name>
P133607560

>  <RI>
0

>  <Rbt.Current_Directory>
/home/fstefaniak/projects/zuza/docking/adenine/4TZX

>  <Rbt.Executable>
rbdock ($Id: //depot/dev/client3/rdock/2013.1/src/exe/rbdock.cxx#4 $)

>  <Rbt.Library>
libRbt.so (2013.1, Build901 2013/11/27)

>  <Rbt.Parameter_File>
/home/fstefaniak/progs/rDock//data/scripts/dock_solv.prm

>  <Rbt.Receptor>
4tzx.prm

>  <SCORE>
-39.2651

>  <SCORE.INTER>
-18.9935

>  <SCORE.INTER.CONST>
1

>  <SCORE.INTER.POLAR>
-3.99904

>  <SCORE.INTER.ROT>
1

>  <SCORE.INTER.SOLV>
13.8577

>  <SCORE.INTER.VDW>
-8.21806

>  <SCORE.INTER.norm>
-1.89935

>  <SCORE.INTRA>
-1.10589

>  <SCORE.INTRA.DIHEDRAL>
0.868403

>  <SCORE.INTRA.DIHEDRAL.0>
0.92964

>  <SCORE.INTRA.POLAR>
0.000563443

>  <SCORE.INTRA.POLAR.0>
-0.000563443

>  <SCORE.INTRA.REPUL>
0

>  <SCORE.INTRA.REPUL.0>
0

>  <SCORE.INTRA.SOLV>
0.0268932

>  <SCORE.INTRA.SOLV.lig_0>
-45.0273

>  <SCORE.INTRA.VDW>
-1.55546

>  <SCORE.INTRA.VDW.0>
3.41698

>  <SCORE.INTRA.norm>
-0.110589

>  <SCORE.RESTR>
0.510955

>  <SCORE.RESTR.CAVITY>
0.510955

>  <SCORE.RESTR.norm>
0.0510955

>  <SCORE.SYSTEM>
-19.6766

>  <SCORE.SYSTEM.CONST>
0

>  <SCORE.SYSTEM.DIHEDRAL>
5.4104

>  <SCORE.SYSTEM.POLAR>
-3.07685

>  <SCORE.SYSTEM.SOLV>
0.255463

>  <SCORE.SYSTEM.VDW>
-4.75021

>  <SCORE.SYSTEM.norm>
-1.96766

>  <SCORE.heavy>
10

>  <SCORE.norm>
-3.92651

$$$$
P133607560
 OpenBabel12072022113D
libRbt.so/2013.1/901 2013/11/27
 13 13  0  0  0  0  0  0  0  0999 V2000
  -25.5895   11.2492  -16.7980 C   0  0  0  0  0  0  0  0  0  0  0  0
  -26.5724   12.2791  -16.2374 C   0  0  1  0  0  0  0  0  0  0  0  0
  -26.0171   13.6987  -16.3160 C   0  0  0  0  0  0  0  0  0  0  0  0
  -26.9223   14.4373  -17.1760 O   0  0  0  0  0  0  0  0  0  0  0  0
  -28.2218   13.8873  -16.8983 C   0  0  0  0  0  0  0  0  0  0  0  0
  -27.9353   12.3856  -16.9100 C   0  0  1  0  0  0  0  0  0  0  0  0
  -27.8045   12.0038  -18.3676 N   0  3  0  0  0  0  0  0  0  0  0  0
  -26.9539   12.4057  -18.7741 H   0  0  0  0  0  0  0  0  0  0  0  0
  -27.7772   10.9865  -18.4776 H   0  0  0  0  0  0  0  0  0  0  0  0
  -28.6298   12.3628  -18.8691 H   0  0  0  0  0  0  0  0  0  0  0  0
  -26.9847   11.9404  -14.7964 C   0  0  0  0  0  0  0  0  0  0  0  0
  -26.7528   12.8431  -13.9493 O   0  0  0  0  0  0  0  0  0  0  0  0
  -27.5933   10.8509  -14.6542 O   0  5  0  0  0  0  0  0  0  0  0  0
  2  1  1  6  0  0  0
  2  3  1  0  0  0  0
  2  6  1  0  0  0  0
  2 11  1  0  0  0  0
  3  4  1  0  0  0  0
  4  5  1  0  0  0  0
  5  6  1  0  0  0  0
  6  7  1  6  0  0  0
  7  8  1  0  0  0  0
  7  9  1  0  0  0  0
  7 10  1  0  0  0  0
 11 12  2  0  0  0  0
 11 13  1  0  0  0  0
M  CHG  2   7   1  13  -1
M  END
>  <CHROM.0>
-59.49143910,53.23594704,-72.00126632,-43.12058122,-58.54857403,-174.70678997
-169.57778027,-174.90341244,-168.34886854

>  <CHROM.1>
122.68119691,-41.84541636,-27.04783534,12.55507862,-16.24175054,0.60387839
1.38853003,2.99087218

>  <Name>
P133607560

>  <RI>
0

>  <Rbt.Current_Directory>
/home/fstefaniak/projects/zuza/docking/adenine/4TZX

>  <Rbt.Executable>
rbdock ($Id: //depot/dev/client3/rdock/2013.1/src/exe/rbdock.cxx#4 $)

>  <Rbt.Library>
libRbt.so (2013.1, Build901 2013/11/27)

>  <Rbt.Parameter_File>
/home/fstefaniak/progs/rDock//data/scripts/dock_solv.prm

>  <Rbt.Receptor>
4tzx.prm

>  <SCORE>
-39.2203

>  <SCORE.INTER>
-19.0245

>  <SCORE.INTER.CONST>
1

>  <SCORE.INTER.POLAR>
-3.96499

>  <SCORE.INTER.ROT>
1

>  <SCORE.INTER.SOLV>
13.928

>  <SCORE.INTER.VDW>
-8.37568

>  <SCORE.INTER.norm>
-1.90245

>  <SCORE.INTRA>
-1.17331

>  <SCORE.INTRA.DIHEDRAL>
0.683091

>  <SCORE.INTRA.DIHEDRAL.0>
0.92964

>  <SCORE.INTRA.POLAR>
0.000563443

>  <SCORE.INTRA.POLAR.0>
-0.000563443

>  <SCORE.INTRA.REPUL>
0

>  <SCORE.INTRA.REPUL.0>
0

>  <SCORE.INTRA.SOLV>
0.0660775

>  <SCORE.INTRA.SOLV.lig_0>
-45.0273

>  <SCORE.INTRA.VDW>
-1.54981

>  <SCORE.INTRA.VDW.0>
3.41698

>  <SCORE.INTRA.norm>
-0.117331

>  <SCORE.RESTR>
0.525402

>  <SCORE.RESTR.CAVITY>
0.525402

>  <SCORE.RESTR.norm>
0.0525402

>  <SCORE.SYSTEM>
-19.548

>  <SCORE.SYSTEM.CONST>
0

>  <SCORE.SYSTEM.DIHEDRAL>
5.59405

>  <SCORE.SYSTEM.POLAR>
-3.05364

>  <SCORE.SYSTEM.SOLV>
-0.0028845

>  <SCORE.SYSTEM.VDW>
-4.71688

>  <SCORE.SYSTEM.norm>
-1.9548

>  <SCORE.heavy>
10

>  <SCORE.norm>
-3.92203

$$$$
P133607560
 OpenBabel12072022113D
libRbt.so/2013.1/901 2013/11/27
 13 13  0  0  0  0  0  0  0  0999 V2000
  -25.6085   11.1827  -16.8150 C   0  0  0  0  0  0  0  0  0  0  0  0
  -26.5562   12.2373  -16.2401 C   0  0  1  0  0  0  0  0  0  0  0  0
  -25.9517   13.6378  -16.2955 C   0  0  0  0  0  0  0  0  0  0  0  0
  -26.8288   14.4208  -17.1455 O   0  0  0  0  0  0  0  0  0  0  0  0
  -28.1472   13.9121  -16.8787 C   0  0  0  0  0  0  0  0  0  0  0  0
  -27.9131   12.4017  -16.9134 C   0  0  1  0  0  0  0  0  0  0  0  0
  -27.7923   12.0383  -18.3765 N   0  3  0  0  0  0  0  0  0  0  0  0
  -26.9376   12.4343  -18.7804 H   0  0  0  0  0  0  0  0  0  0  0  0
  -27.7791   11.0224  -18.5006 H   0  0  0  0  0  0  0  0  0  0  0  0
  -28.6142   12.4154  -18.8702 H   0  0  0  0  0  0  0  0  0  0  0  0
  -26.9835   11.8908  -14.8053 C   0  0  0  0  0  0  0  0  0  0  0  0
  -26.7257   12.7732  -13.9444 O   0  0  0  0  0  0  0  0  0  0  0  0
  -27.6266   10.8192  -14.6807 O   0  5  0  0  0  0  0  0  0  0  0  0
  2  1  1  6  0  0  0
  2  3  1  0  0  0  0
  2  6  1  0  0  0  0
  2 11  1  0  0  0  0
  3  4  1  0  0  0  0
  4  5  1  0  0  0  0
  5  6  1  0  0  0  0
  6  7  1  6  0  0  0
  7  8  1  0  0  0  0
  7  9  1  0  0  0  0
  7 10  1  0  0  0  0
 11 12  2  0  0  0  0
 11 13  1  0  0  0  0
M  CHG  2   7   1  13  -1
M  END
>  <CHROM.0>
-58.70153371,56.67870853,63.08419936,-42.85782322,-58.87151463,-60.78958744
56.00748705,-60.26435803,-168.89933004

>  <CHROM.1>
122.87385925,-43.10661594,-27.02183986,12.52971615,-16.24099007,0.78574196
1.38353414,2.82845339

>  <Name>
P133607560

>  <RI>
0

>  <Rbt.Current_Directory>
/home/fstefaniak/projects/zuza/docking/adenine/4TZX

>  <Rbt.Executable>
rbdock ($Id: //depot/dev/client3/rdock/2013.1/src/exe/rbdock.cxx#4 $)

>  <Rbt.Library>
libRbt.so (2013.1, Build901 2013/11/27)

>  <Rbt.Parameter_File>
/home/fstefaniak/progs/rDock//data/scripts/dock_solv.prm

>  <Rbt.Receptor>
4tzx.prm

>  <SCORE>
-38.4063

>  <SCORE.INTER>
-19.4758

>  <SCORE.INTER.CONST>
1

>  <SCORE.INTER.POLAR>
-3.98631

>  <SCORE.INTER.ROT>
1

>  <SCORE.INTER.SOLV>
13.8296

>  <SCORE.INTER.VDW>
-8.57266

>  <SCORE.INTER.norm>
-1.94758

>  <SCORE.INTRA>
-1.25126

>  <SCORE.INTRA.DIHEDRAL>
0.593741

>  <SCORE.INTRA.DIHEDRAL.0>
0.92964

>  <SCORE.INTRA.POLAR>
0.000563443

>  <SCORE.INTRA.POLAR.0>
-0.000563443

>  <SCORE.INTRA.REPUL>
0

>  <SCORE.INTRA.REPUL.0>
0

>  <SCORE.INTRA.SOLV>
0.0662745

>  <SCORE.INTRA.SOLV.lig_0>
-45.0273

>  <SCORE.INTRA.VDW>
-1.58318

>  <SCORE.INTRA.VDW.0>
3.41698

>  <SCORE.INTRA.norm>
-0.125126

>  <SCORE.RESTR>
0.620705

>  <SCORE.RESTR.CAVITY>
0.620705

>  <SCORE.RESTR.norm>
0.0620705

>  <SCORE.SYSTEM>
-18.3

>  <SCORE.SYSTEM.CONST>
0

>  <SCORE.SYSTEM.DIHEDRAL>
4.17028

>  <SCORE.SYSTEM.POLAR>
-3.04414

>  <SCORE.SYSTEM.SOLV>
0.155355

>  <SCORE.SYSTEM.VDW>
-3.49476

>  <SCORE.SYSTEM.norm>
-1.83

>  <SCORE.heavy>
10

>  <SCORE.norm>
-3.84063

$$$$
P133621473
 OpenBabel12072022113D
libRbt.so/2013.1/901 2013/11/27
 19 19  0  0  0  0  0  0  0  0999 V2000
  -26.8818   15.5587  -17.6591 H   0  0  0  0  0  0  0  0  0  0  0  0
  -26.2849   14.9396  -17.1144 N   0  0  0  0  0  0  0  0  0  0  0  0
  -26.9092   14.3116  -16.1896 C   0  0  0  0  0  0  0  0  0  0  0  0
  -28.2409   14.6349  -15.9081 N   0  0  0  0  0  0  0  0  0  0  0  0
  -28.8715   15.8067  -16.0001 C   0  0  0  0  0  0  0  0  0  0  0  0
  -28.2059   16.9492  -16.1950 N   0  3  0  0  0  0  0  0  0  0  0  0
  -28.6692   17.8455  -16.2615 H   0  0  0  0  0  0  0  0  0  0  0  0
  -27.1881   16.9491  -16.1888 H   0  0  0  0  0  0  0  0  0  0  0  0
  -30.2015   15.8593  -15.8620 N   0  0  0  0  0  0  0  0  0  0  0  0
  -26.3946   13.2811  -15.4533 N   0  0  0  0  0  0  0  0  0  0  0  0
  -25.0103   13.2204  -14.9842 C   0  0  0  0  0  0  0  0  0  0  0  0
  -24.0986   12.5022  -15.9804 C   0  0  0  0  0  0  0  0  0  0  0  0
  -24.2409   10.9833  -15.9119 C   0  0  0  0  0  0  0  0  0  0  0  0
  -25.4183   10.3844  -16.6793 C   0  0  0  0  0  0  0  0  0  0  0  0
  -26.7061   11.2020  -16.7689 C   0  0  0  0  0  0  0  0  0  0  0  0
  -27.0763   11.9720  -15.5028 C   0  0  0  0  0  0  0  0  0  0  0  0
  -28.7819   13.8569  -15.5674 H   0  0  0  0  0  0  0  0  0  0  0  0
  -30.7611   15.0239  -15.7455 H   0  0  0  0  0  0  0  0  0  0  0  0
  -30.7008   16.7387  -15.9131 H   0  0  0  0  0  0  0  0  0  0  0  0
  1  2  1  0  0  0  0
  2  3  2  0  0  0  0
  3  4  1  0  0  0  0
  3 10  1  0  0  0  0
  4  5  1  0  0  0  0
  4 17  1  0  0  0  0
  5  6  2  0  0  0  0
  5  9  1  0  0  0  0
  6  7  1  0  0  0  0
  6  8  1  0  0  0  0
  9 18  1  0  0  0  0
  9 19  1  0  0  0  0
 10 11  1  0  0  0  0
 10 16  1  0  0  0  0
 11 12  1  0  0  0  0
 12 13  1  0  0  0  0
 13 14  1  0  0  0  0
 14 15  1  0  0  0  0
 15 16  1  0  0  0  0
M  CHG  1   6   1
M  END
>  <CHROM.0>
-58.03555121,-176.76372096,-71.10211885,-42.43889459,60.03944430,-64.08930640
-172.47951958,-174.18727529,-169.27768308

>  <CHROM.1>
38.31908344,-26.78581445,13.58851755,-16.04703966,-2.26501277,0.02444771
-3.12013394

>  <Name>
P133621473

>  <RI>
0

>  <Rbt.Current_Directory>
/home/fstefaniak/projects/zuza/docking/adenine/4TZX

>  <Rbt.Executable>
rbdock ($Id: //depot/dev/client3/rdock/2013.1/src/exe/rbdock.cxx#4 $)

>  <Rbt.Library>
libRbt.so (2013.1, Build901 2013/11/27)

>  <Rbt.Parameter_File>
/home/fstefaniak/progs/rDock//data/scripts/dock_solv.prm

>  <Rbt.Receptor>
4tzx.prm

>  <SCORE>
-42.8875

>  <SCORE.INTER>
-24.8792

>  <SCORE.INTER.CONST>
1

>  <SCORE.INTER.POLAR>
-3.5994

>  <SCORE.INTER.ROT>
1

>  <SCORE.INTER.SOLV>
15.2071

>  <SCORE.INTER.VDW>
-13.9238

>  <SCORE.INTER.norm>
-1.91379

>  <SCORE.INTRA>
-0.422792

>  <SCORE.INTRA.DIHEDRAL>
0.00452981

>  <SCORE.INTRA.DIHEDRAL.0>
0.488893

>  <SCORE.INTRA.POLAR>
0

>  <SCORE.INTRA.POLAR.0>
0

>  <SCORE.INTRA.REPUL>
0

>  <SCORE.INTRA.REPUL.0>
0

>  <SCORE.INTRA.SOLV>
0.029864

>  <SCORE.INTRA.SOLV.lig_0>
-30.5203

>  <SCORE.INTRA.VDW>
-0.439989

>  <SCORE.INTRA.VDW.0>
0.0338725

>  <SCORE.INTRA.norm>
-0.0325225

>  <SCORE.RESTR>
1.97218

>  <SCORE.RESTR.CAVITY>
1.97218

>  <SCORE.RESTR.norm>
0.151706

>  <SCORE.SYSTEM>
-19.5577

>  <SCORE.SYSTEM.CONST>
0

>  <SCORE.SYSTEM.DIHEDRAL>
5.10816

>  <SCORE.SYSTEM.POLAR>
-3.04808

>  <SCORE.SYSTEM.SOLV>
-0.221197

>  <SCORE.SYSTEM.VDW>
-4.5072

>  <SCORE.SYSTEM.norm>
-1.50444

>  <SCORE.heavy>
13

>  <SCORE.norm>
-3.29904

$$$$
P133621473
 OpenBabel12072022113D
libRbt.so/2013.1/901 2013/11/27
 19 19  0  0  0  0  0  0  0  0999 V2000
  -24.4713   14.3033  -14.7894 H   0  0  0  0  0  0  0  0  0  0  0  0
  -25.3109   13.7288  -14.7571 N   0  0  0  0  0  0  0  0  0  0  0  0
  -25.9723   13.7287  -15.8534 C   0  0  0  0  0  0  0  0  0  0  0  0
  -25.6050   14.5986  -16.8856 N   0  0  0  0  0  0  0  0  0  0  0  0
  -25.0637   15.8161  -16.8225 C   0  0  0  0  0  0  0  0  0  0  0  0
  -24.9858   16.4913  -15.6717 N   0  3  0  0  0  0  0  0  0  0  0  0
  -24.5834   17.4168  -15.6088 H   0  0  0  0  0  0  0  0  0  0  0  0
  -25.4233   16.1146  -14.8335 H   0  0  0  0  0  0  0  0  0  0  0  0
  -24.6136   16.4029  -17.9377 N   0  0  0  0  0  0  0  0  0  0  0  0
  -27.0149   12.8932  -16.1428 N   0  0  0  0  0  0  0  0  0  0  0  0
  -26.9632   11.4382  -15.9999 C   0  0  0  0  0  0  0  0  0  0  0  0
  -26.5113   10.7514  -17.2897 C   0  0  0  0  0  0  0  0  0  0  0  0
  -27.6300   10.6598  -18.3251 C   0  0  0  0  0  0  0  0  0  0  0  0
  -27.8675   11.9112  -19.1687 C   0  0  0  0  0  0  0  0  0  0  0  0
  -27.6325   13.2721  -18.5147 C   0  0  0  0  0  0  0  0  0  0  0  0
  -28.0711   13.3760  -17.0553 C   0  0  0  0  0  0  0  0  0  0  0  0
  -25.8060   14.2414  -17.8055 H   0  0  0  0  0  0  0  0  0  0  0  0
  -24.6165   15.9276  -18.8314 H   0  0  0  0  0  0  0  0  0  0  0  0
  -24.2123   17.3323  -17.9174 H   0  0  0  0  0  0  0  0  0  0  0  0
  1  2  1  0  0  0  0
  2  3  2  0  0  0  0
  3  4  1  0  0  0  0
  3 10  1  0  0  0  0
  4  5  1  0  0  0  0
  4 17  1  0  0  0  0
  5  6  2  0  0  0  0
  5  9  1  0  0  0  0
  6  7  1  0  0  0  0
  6  8  1  0  0  0  0
  9 18  1  0  0  0  0
  9 19  1  0  0  0  0
 10 11  1  0  0  0  0
 10 16  1  0  0  0  0
 11 12  1  0  0  0  0
 12 13  1  0  0  0  0
 13 14  1  0  0  0  0
 14 15  1  0  0  0  0
 15 16  1  0  0  0  0
M  CHG  1   6   1
M  END
>  <CHROM.0>
-58.72968024,72.39306898,-65.47798622,-42.67589153,-63.60315378,-175.55852496
-68.10933807,-174.37902018,-167.94336521

>  <CHROM.1>
-51.25325045,-26.37217144,13.51699714,-16.95894316,-0.30156058,1.05291756
2.21542841

>  <Name>
P133621473

>  <RI>
0

>  <Rbt.Current_Directory>
/home/fstefaniak/projects/zuza/docking/adenine/4TZX

>  <Rbt.Executable>
rbdock ($Id: //depot/dev/client3/rdock/2013.1/src/exe/rbdock.cxx#4 $)

>  <Rbt.Library>
libRbt.so (2013.1, Build901 2013/11/27)

>  <Rbt.Parameter_File>
/home/fstefaniak/progs/rDock//data/scripts/dock_solv.prm

>  <Rbt.Receptor>
4tzx.prm

>  <SCORE>
-42.4289

>  <SCORE.INTER>
-28.0984

>  <SCORE.INTER.CONST>
1

>  <SCORE.INTER.POLAR>
-4.74703

>  <SCORE.INTER.ROT>
1

>  <SCORE.INTER.SOLV>
21.5414

>  <SCORE.INTER.VDW>
-14.356

>  <SCORE.INTER.norm>
-2.16142

>  <SCORE.INTRA>
3.83226

>  <SCORE.INTRA.DIHEDRAL>
0.000748622

>  <SCORE.INTRA.DIHEDRAL.0>
0.488893

>  <SCORE.INTRA.POLAR>
0

>  <SCORE.INTRA.POLAR.0>
0

>  <SCORE.INTRA.REPUL>
0

>  <SCORE.INTRA.REPUL.0>
0

>  <SCORE.INTRA.SOLV>
0.826472

>  <SCORE.INTRA.SOLV.lig_0>
-30.5203

>  <SCORE.INTRA.VDW>
3.41865

>  <SCORE.INTRA.VDW.0>
0.0338725

>  <SCORE.INTRA.norm>
0.294789

>  <SCORE.RESTR>
1.32734

>  <SCORE.RESTR.CAVITY>
1.32734

>  <SCORE.RESTR.norm>
0.102103

>  <SCORE.SYSTEM>
-19.4901

>  <SCORE.SYSTEM.CONST>
0

>  <SCORE.SYSTEM.DIHEDRAL>
5.5508

>  <SCORE.SYSTEM.POLAR>
-3.06152

>  <SCORE.SYSTEM.SOLV>
-0.0627224

>  <SCORE.SYSTEM.VDW>
-4.61768

>  <SCORE.SYSTEM.norm>
-1.49924

>  <SCORE.heavy>
13

>  <SCORE.norm>
-3.26376

$$$$
P133621473
 OpenBabel12072022113D
libRbt.so/2013.1/901 2013/11/27
 19 19  0  0  0  0  0  0  0  0999 V2000
  -24.4892   14.3542  -14.7914 H   0  0  0  0  0  0  0  0  0  0  0  0
  -25.3299   13.7811  -14.7594 N   0  0  0  0  0  0  0  0  0  0  0  0
  -25.9841   13.7722  -15.8600 C   0  0  0  0  0  0  0  0  0  0  0  0
  -25.6089   14.6324  -16.8975 N   0  0  0  0  0  0  0  0  0  0  0  0
  -25.0665   15.8498  -16.8416 C   0  0  0  0  0  0  0  0  0  0  0  0
  -24.9951   16.5350  -15.6963 N   0  3  0  0  0  0  0  0  0  0  0  0
  -24.5918   17.4605  -15.6390 H   0  0  0  0  0  0  0  0  0  0  0  0
  -25.4385   16.1663  -14.8577 H   0  0  0  0  0  0  0  0  0  0  0  0
  -24.6084   16.4262  -17.9590 N   0  0  0  0  0  0  0  0  0  0  0  0
  -27.0260   12.9355  -16.1487 N   0  0  0  0  0  0  0  0  0  0  0  0
  -26.9692   11.4797  -16.0156 C   0  0  0  0  0  0  0  0  0  0  0  0
  -26.5228   10.8027  -17.3124 C   0  0  0  0  0  0  0  0  0  0  0  0
  -27.6472   10.7146  -18.3419 C   0  0  0  0  0  0  0  0  0  0  0  0
  -27.8934   11.9707  -19.1759 C   0  0  0  0  0  0  0  0  0  0  0  0
  -27.6586   13.3280  -18.5144 C   0  0  0  0  0  0  0  0  0  0  0  0
  -28.0889   13.4211  -17.0518 C   0  0  0  0  0  0  0  0  0  0  0  0
  -25.8045   14.2674  -17.8153 H   0  0  0  0  0  0  0  0  0  0  0  0
  -24.6061   15.9429  -18.8485 H   0  0  0  0  0  0  0  0  0  0  0  0
  -24.2060   17.3552  -17.9442 H   0  0  0  0  0  0  0  0  0  0  0  0
  1  2  1  0  0  0  0
  2  3  2  0  0  0  0
  3  4  1  0  0  0  0
  3 10  1  0  0  0  0
  4  5  1  0  0  0  0
  4 17  1  0  0  0  0
  5  6  2  0  0  0  0
  5  9  1  0  0  0  0
  6  7  1  0  0  0  0
  6  8  1  0  0  0  0
  9 18  1  0  0  0  0
  9 19  1  0  0  0  0
 10 11  1  0  0  0  0
 10 16  1  0  0  0  0
 11 12  1  0  0  0  0
 12 13  1  0  0  0  0
 13 14  1  0  0  0  0
 14 15  1  0  0  0  0
 15 16  1  0  0  0  0
M  CHG  1   6   1
M  END
>  <CHROM.0>
-60.47027760,-174.55793546,-67.26503907,-43.25820741,56.31381606,56.57543789
-67.94274393,-60.16867547,-168.29089209

>  <CHROM.1>
-52.40728228,-26.38407655,13.56149140,-16.97070404,-0.29357116,1.05015317
2.20731671

>  <Name>
P133621473

>  <RI>
0

>  <Rbt.Current_Directory>
/home/fstefaniak/projects/zuza/docking/adenine/4TZX

>  <Rbt.Executable>
rbdock ($Id: //depot/dev/client3/rdock/2013.1/src/exe/rbdock.cxx#4 $)

>  <Rbt.Library>
libRbt.so (2013.1, Build901 2013/11/27)

>  <Rbt.Parameter_File>
/home/fstefaniak/progs/rDock//data/scripts/dock_solv.prm

>  <Rbt.Receptor>
4tzx.prm

>  <SCORE>
-41.8768

>  <SCORE.INTER>
-27.6045

>  <SCORE.INTER.CONST>
1

>  <SCORE.INTER.POLAR>
-4.79296

>  <SCORE.INTER.ROT>
1

>  <SCORE.INTER.SOLV>
21.6207

>  <SCORE.INTER.VDW>
-13.9

>  <SCORE.INTER.norm>
-2.12342

>  <SCORE.INTRA>
3.6308

>  <SCORE.INTRA.DIHEDRAL>
0.00155485

>  <SCORE.INTRA.DIHEDRAL.0>
0.488893

>  <SCORE.INTRA.POLAR>
0

>  <SCORE.INTRA.POLAR.0>
0

>  <SCORE.INTRA.REPUL>
0

>  <SCORE.INTRA.REPUL.0>
0

>  <SCORE.INTRA.SOLV>
0.831789

>  <SCORE.INTRA.SOLV.lig_0>
-30.5203

>  <SCORE.INTRA.VDW>
3.21413

>  <SCORE.INTRA.VDW.0>
0.0338725

>  <SCORE.INTRA.norm>
0.279292

>  <SCORE.RESTR>
1.2358

>  <SCORE.RESTR.CAVITY>
1.2358

>  <SCORE.RESTR.norm>
0.0950619

>  <SCORE.SYSTEM>
-19.1389

>  <SCORE.SYSTEM.CONST>
0

>  <SCORE.SYSTEM.DIHEDRAL>
4.7668

>  <SCORE.SYSTEM.POLAR>
-3.04193

>  <SCORE.SYSTEM.SOLV>
-0.204033

>  <SCORE.SYSTEM.VDW>
-4.14041

>  <SCORE.SYSTEM.norm>
-1.47222

>  <SCORE.heavy>
13

>  <SCORE.norm>
-3.22129

$$$$
P133628255
 OpenBabel12072022113D
libRbt.so/2013.1/901 2013/11/27
 15 15  0  0  0  0  0  0  0  0999 V2000
  -25.9201   14.3603  -16.2284 C   0  0  0  0  0  0  0  0  0  0  0  0
  -26.3490   15.8017  -15.9620 C   0  0  0  0  0  0  0  0  0  0  0  0
  -25.2835   16.7802  -16.4451 C   0  0  0  0  0  0  0  0  0  0  0  0
  -27.6216   16.0860  -16.6119 N   0  0  0  0  0  0  0  0  0  0  0  0
  -28.6804   16.6481  -15.9244 C   0  0  0  0  0  0  0  0  0  0  0  0
  -28.5949   17.0203  -14.7584 O   0  0  0  0  0  0  0  0  0  0  0  0
  -29.9511   16.7789  -16.7534 C   0  0  1  0  0  0  0  0  0  0  0  0
  -31.1480   17.0588  -15.8551 C   0  0  0  0  0  0  0  0  0  0  0  0
  -31.4239   18.4714  -15.9048 O   0  0  0  0  0  0  0  0  0  0  0  0
  -30.4170   19.0898  -16.7239 C   0  0  0  0  0  0  0  0  0  0  0  0
  -29.9146   17.9951  -17.6658 C   0  0  2  0  0  0  0  0  0  0  0  0
  -30.8453   17.8100  -18.8024 N   0  0  0  0  0  0  0  0  0  0  0  0
  -27.7790   15.7078  -17.5371 H   0  0  0  0  0  0  0  0  0  0  0  0
  -30.4552   17.1054  -19.4303 H   0  0  0  0  0  0  0  0  0  0  0  0
  -30.8617   18.6698  -19.3567 H   0  0  0  0  0  0  0  0  0  0  0  0
  1  2  1  0  0  0  0
  2  3  1  0  0  0  0
  2  4  1  0  0  0  0
  4  5  1  0  0  0  0
  4 13  1  0  0  0  0
  5  6  2  0  0  0  0
  7  5  1  1  0  0  0
  7  8  1  0  0  0  0
  7 11  1  0  0  0  0
  8  9  1  0  0  0  0
  9 10  1  0  0  0  0
 10 11  1  0  0  0  0
 11 12  1  6  0  0  0
 12 14  1  0  0  0  0
 12 15  1  0  0  0  0
M  END
>  <CHROM.0>
-59.10788601,-60.73596902,-68.23921377,-42.25208475,-57.08943338,-59.93451247
-63.70894247,-57.94479125,-169.22748017

>  <CHROM.1>
128.98358010,165.39461156,-71.40827556,-28.85317071,17.00170462,-16.48287245
-0.19605774,0.45869754,-1.45674844

>  <Name>
P133628255

>  <RI>
0

>  <Rbt.Current_Directory>
/home/fstefaniak/projects/zuza/docking/adenine/4TZX

>  <Rbt.Executable>
rbdock ($Id: //depot/dev/client3/rdock/2013.1/src/exe/rbdock.cxx#4 $)

>  <Rbt.Library>
libRbt.so (2013.1, Build901 2013/11/27)

>  <Rbt.Parameter_File>
/home/fstefaniak/progs/rDock//data/scripts/dock_solv.prm

>  <Rbt.Receptor>
4tzx.prm

>  <SCORE>
-43.1189

>  <SCORE.INTER>
-22.2013

>  <SCORE.INTER.CONST>
1

>  <SCORE.INTER.POLAR>
-2.75831

>  <SCORE.INTER.ROT>
3

>  <SCORE.INTER.SOLV>
12.6151

>  <SCORE.INTER.VDW>
-15.4115

>  <SCORE.INTER.norm>
-1.85011

>  <SCORE.INTRA>
0.110263

>  <SCORE.INTRA.DIHEDRAL>
1.1683

>  <SCORE.INTRA.DIHEDRAL.0>
1.70904

>  <SCORE.INTRA.POLAR>
0

>  <SCORE.INTRA.POLAR.0>
0

>  <SCORE.INTRA.REPUL>
0

>  <SCORE.INTRA.REPUL.0>
0

>  <SCORE.INTRA.SOLV>
-0.0781904

>  <SCORE.INTRA.SOLV.lig_0>
-13.9426

>  <SCORE.INTRA.VDW>
-0.434792

>  <SCORE.INTRA.VDW.0>
-0.331955

>  <SCORE.INTRA.norm>
0.00918857

>  <SCORE.RESTR>
0

>  <SCORE.RESTR.CAVITY>
0

>  <SCORE.RESTR.norm>
0

>  <SCORE.SYSTEM>
-21.0278

>  <SCORE.SYSTEM.CONST>
0

>  <SCORE.SYSTEM.DIHEDRAL>
4.47362

>  <SCORE.SYSTEM.POLAR>
-3.06054

>  <SCORE.SYSTEM.SOLV>
0.201745

>  <SCORE.SYSTEM.VDW>
-5.37518

>  <SCORE.SYSTEM.norm>
-1.75231

>  <SCORE.heavy>
12

>  <SCORE.norm>
-3.59324

$$$$
P133628255
 OpenBabel12072022113D
libRbt.so/2013.1/901 2013/11/27
 15 15  0  0  0  0  0  0  0  0999 V2000
  -30.6504   18.5771  -17.6379 C   0  0  0  0  0  0  0  0  0  0  0  0
  -29.9326   17.9286  -16.4560 C   0  0  0  0  0  0  0  0  0  0  0  0
  -30.9372   17.3352  -15.4737 C   0  0  0  0  0  0  0  0  0  0  0  0
  -29.0142   16.8963  -16.9180 N   0  0  0  0  0  0  0  0  0  0  0  0
  -27.9722   16.4438  -16.1311 C   0  0  0  0  0  0  0  0  0  0  0  0
  -27.8029   16.8132  -14.9734 O   0  0  0  0  0  0  0  0  0  0  0  0
  -27.0702   15.4337  -16.8276 C   0  0  1  0  0  0  0  0  0  0  0  0
  -25.8845   15.0770  -15.9416 C   0  0  0  0  0  0  0  0  0  0  0  0
  -26.1654   13.8163  -15.3046 O   0  0  0  0  0  0  0  0  0  0  0  0
  -27.4906   13.4124  -15.6891 C   0  0  0  0  0  0  0  0  0  0  0  0
  -27.7625   14.0948  -17.0301 C   0  0  2  0  0  0  0  0  0  0  0  0
  -27.1230   13.3509  -18.1391 N   0  0  0  0  0  0  0  0  0  0  0  0
  -29.0455   16.6333  -17.8947 H   0  0  0  0  0  0  0  0  0  0  0  0
  -26.2594   12.9301  -17.7927 H   0  0  0  0  0  0  0  0  0  0  0  0
  -26.8174   14.0201  -18.8503 H   0  0  0  0  0  0  0  0  0  0  0  0
  1  2  1  0  0  0  0
  2  3  1  0  0  0  0
  2  4  1  0  0  0  0
  4  5  1  0  0  0  0
  4 13  1  0  0  0  0
  5  6  2  0  0  0  0
  7  5  1  1  0  0  0
  7  8  1  0  0  0  0
  7 11  1  0  0  0  0
  8  9  1  0  0  0  0
  9 10  1  0  0  0  0
 10 11  1  0  0  0  0
 11 12  1  6  0  0  0
 12 14  1  0  0  0  0
 12 15  1  0  0  0  0
M  END
>  <CHROM.0>
-58.43672084,-73.20222567,-64.07130875,-43.02519532,-60.18662430,-62.15927214
-68.06611346,-54.27539019,-168.75030039

>  <CHROM.1>
160.22231710,175.12982574,78.50484537,-28.14132263,15.74980043,-16.37791970
2.75279732,-0.76741592,0.99429230

>  <Name>
P133628255

>  <RI>
0

>  <Rbt.Current_Directory>
/home/fstefaniak/projects/zuza/docking/adenine/4TZX

>  <Rbt.Executable>
rbdock ($Id: //depot/dev/client3/rdock/2013.1/src/exe/rbdock.cxx#4 $)

>  <Rbt.Library>
libRbt.so (2013.1, Build901 2013/11/27)

>  <Rbt.Parameter_File>
/home/fstefaniak/progs/rDock//data/scripts/dock_solv.prm

>  <Rbt.Receptor>
4tzx.prm

>  <SCORE>
-42.9345

>  <SCORE.INTER>
-23.5471

>  <SCORE.INTER.CONST>
1

>  <SCORE.INTER.POLAR>
-3.10121

>  <SCORE.INTER.ROT>
3

>  <SCORE.INTER.SOLV>
11.646

>  <SCORE.INTER.VDW>
-14.8427

>  <SCORE.INTER.norm>
-1.96226

>  <SCORE.INTRA>
1.45828

>  <SCORE.INTRA.DIHEDRAL>
1.19109

>  <SCORE.INTRA.DIHEDRAL.0>
1.70904

>  <SCORE.INTRA.POLAR>
0

>  <SCORE.INTRA.POLAR.0>
0

>  <SCORE.INTRA.REPUL>
0

>  <SCORE.INTRA.REPUL.0>
0

>  <SCORE.INTRA.SOLV>
0.132476

>  <SCORE.INTRA.SOLV.lig_0>
-13.9426

>  <SCORE.INTRA.VDW>
0.796494

>  <SCORE.INTRA.VDW.0>
-0.331955

>  <SCORE.INTRA.norm>
0.121523

>  <SCORE.RESTR>
0

>  <SCORE.RESTR.CAVITY>
0

>  <SCORE.RESTR.norm>
0

>  <SCORE.SYSTEM>
-20.8457

>  <SCORE.SYSTEM.CONST>
0

>  <SCORE.SYSTEM.DIHEDRAL>
5.33178

>  <SCORE.SYSTEM.POLAR>
-3.0743

>  <SCORE.SYSTEM.SOLV>
0.181888

>  <SCORE.SYSTEM.VDW>
-5.48739

>  <SCORE.SYSTEM.norm>
-1.73714

>  <SCORE.heavy>
12

>  <SCORE.norm>
-3.57788

$$$$
P133628255
 OpenBabel12072022113D
libRbt.so/2013.1/901 2013/11/27
 15 15  0  0  0  0  0  0  0  0999 V2000
  -25.9368   14.3282  -16.2263 C   0  0  0  0  0  0  0  0  0  0  0  0
  -26.3480   15.7765  -15.9695 C   0  0  0  0  0  0  0  0  0  0  0  0
  -25.2772   16.7391  -16.4724 C   0  0  0  0  0  0  0  0  0  0  0  0
  -27.6239   16.0681  -16.6092 N   0  0  0  0  0  0  0  0  0  0  0  0
  -28.6762   16.6303  -15.9119 C   0  0  0  0  0  0  0  0  0  0  0  0
  -28.5816   16.9966  -14.7447 O   0  0  0  0  0  0  0  0  0  0  0  0
  -29.9521   16.7692  -16.7317 C   0  0  1  0  0  0  0  0  0  0  0  0
  -31.1541   16.9679  -15.8187 C   0  0  0  0  0  0  0  0  0  0  0  0
  -31.4692   18.3729  -15.7935 O   0  0  0  0  0  0  0  0  0  0  0  0
  -30.4818   19.0615  -16.5797 C   0  0  0  0  0  0  0  0  0  0  0  0
  -29.9516   18.0324  -17.5785 C   0  0  2  0  0  0  0  0  0  0  0  0
  -30.8795   17.8817  -18.7225 N   0  0  0  0  0  0  0  0  0  0  0  0
  -27.7888   15.6948  -17.5352 H   0  0  0  0  0  0  0  0  0  0  0  0
  -30.5193   17.1516  -19.3390 H   0  0  0  0  0  0  0  0  0  0  0  0
  -30.8475   18.7351  -19.2859 H   0  0  0  0  0  0  0  0  0  0  0  0
  1  2  1  0  0  0  0
  2  3  1  0  0  0  0
  2  4  1  0  0  0  0
  4  5  1  0  0  0  0
  4 13  1  0  0  0  0
  5  6  2  0  0  0  0
  7  5  1  1  0  0  0
  7  8  1  0  0  0  0
  7 11  1  0  0  0  0
  8  9  1  0  0  0  0
  9 10  1  0  0  0  0
 10 11  1  0  0  0  0
 11 12  1  6  0  0  0
 12 14  1  0  0  0  0
 12 15  1  0  0  0  0
M  END
>  <CHROM.0>
-60.57815099,-64.86492701,-62.29720828,-42.73058977,-60.83911057,-60.62354055
-64.77445742,-58.35932797,-168.71167737

>  <CHROM.1>
128.04969898,162.10363450,-65.60929191,-28.86865532,16.97812244,-16.44253171
-0.19873027,0.45049486,-1.40706018

>  <Name>
P133628255

>  <RI>
0

>  <Rbt.Current_Directory>
/home/fstefaniak/projects/zuza/docking/adenine/4TZX

>  <Rbt.Executable>
rbdock ($Id: //depot/dev/client3/rdock/2013.1/src/exe/rbdock.cxx#4 $)

>  <Rbt.Library>
libRbt.so (2013.1, Build901 2013/11/27)

>  <Rbt.Parameter_File>
/home/fstefaniak/progs/rDock//data/scripts/dock_solv.prm

>  <Rbt.Receptor>
4tzx.prm

>  <SCORE>
-42.8636

>  <SCORE.INTER>
-21.8983

>  <SCORE.INTER.CONST>
1

>  <SCORE.INTER.POLAR>
-2.75444

>  <SCORE.INTER.ROT>
3

>  <SCORE.INTER.SOLV>
12.4631

>  <SCORE.INTER.VDW>
-15.1718

>  <SCORE.INTER.norm>
-1.82486

>  <SCORE.INTRA>
0.114548

>  <SCORE.INTRA.DIHEDRAL>
1.30738

>  <SCORE.INTRA.DIHEDRAL.0>
1.70904

>  <SCORE.INTRA.POLAR>
0

>  <SCORE.INTRA.POLAR.0>
0

>  <SCORE.INTRA.REPUL>
0

>  <SCORE.INTRA.REPUL.0>
0

>  <SCORE.INTRA.SOLV>
-0.0946836

>  <SCORE.INTRA.SOLV.lig_0>
-13.9426

>  <SCORE.INTRA.VDW>
-0.491797

>  <SCORE.INTRA.VDW.0>
-0.331955

>  <SCORE.INTRA.norm>
0.0095457

>  <SCORE.RESTR>
0

>  <SCORE.RESTR.CAVITY>
0

>  <SCORE.RESTR.norm>
0

>  <SCORE.SYSTEM>
-21.0798

>  <SCORE.SYSTEM.CONST>
0

>  <SCORE.SYSTEM.DIHEDRAL>
4.28082

>  <SCORE.SYSTEM.POLAR>
-3.05733

>  <SCORE.SYSTEM.SOLV>
0.194468

>  <SCORE.SYSTEM.VDW>
-5.35389

>  <SCORE.SYSTEM.norm>
-1.75665

>  <SCORE.heavy>
12

>  <SCORE.norm>
-3.57196

$$$$
P133629862
 OpenBabel12072022113D
libRbt.so/2013.1/901 2013/11/27
 15 15  0  0  0  0  0  0  0  0999 V2000
  -25.8443   14.1544  -16.7908 C   0  0  0  0  0  0  0  0  0  0  0  0
  -27.0350   14.3134  -16.7845 C   0  0  0  0  0  0  0  0  0  0  0  0
  -28.4875   14.5041  -16.7825 C   0  0  0  0  0  0  0  0  0  0  0  0
  -28.7960   15.9115  -16.7057 N   0  0  0  0  0  0  0  0  0  0  0  0
  -29.5998   16.3922  -15.6946 C   0  0  0  0  0  0  0  0  0  0  0  0
  -30.0253   15.6780  -14.7923 O   0  0  0  0  0  0  0  0  0  0  0  0
  -29.9007   17.8797  -15.8049 C   0  0  2  0  0  0  0  0  0  0  0  0
  -30.8603   18.3071  -14.7025 C   0  0  0  0  0  0  0  0  0  0  0  0
  -32.1771   18.4201  -15.2757 O   0  0  0  0  0  0  0  0  0  0  0  0
  -32.1039   17.9802  -16.6419 C   0  0  0  0  0  0  0  0  0  0  0  0
  -30.6586   18.2188  -17.0784 C   0  0  1  0  0  0  0  0  0  0  0  0
  -30.4420   19.6392  -17.4347 N   0  0  0  0  0  0  0  0  0  0  0  0
  -28.6530   16.4716  -17.5356 H   0  0  0  0  0  0  0  0  0  0  0  0
  -31.1641   20.2046  -16.9808 H   0  0  0  0  0  0  0  0  0  0  0  0
  -30.6156   19.7546  -18.4345 H   0  0  0  0  0  0  0  0  0  0  0  0
  1  2  3  0  0  0  0
  2  3  1  0  0  0  0
  3  4  1  0  0  0  0
  4  5  1  0  0  0  0
  4 13  1  0  0  0  0
  5  6  2  0  0  0  0
  7  8  1  0  0  0  0
  7  5  1  6  0  0  0
  7 11  1  0  0  0  0
  8  9  1  0  0  0  0
  9 10  1  0  0  0  0
 10 11  1  0  0  0  0
 11 12  1  1  0  0  0
 12 14  1  0  0  0  0
 12 15  1  0  0  0  0
M  END
>  <CHROM.0>
-58.84525859,-62.73663995,-66.35199014,-44.04360060,-58.34193632,-59.96897639
-65.09523632,-57.37457938,-169.03227639

>  <CHROM.1>
-122.83517144,-123.94935580,176.49896152,-89.60078010,-29.75102992,16.86054908
-16.19849872,-0.46477420,0.66030425,-0.75856686

>  <Name>
P133629862

>  <RI>
0

>  <Rbt.Current_Directory>
/home/fstefaniak/projects/zuza/docking/adenine/4TZX

>  <Rbt.Executable>
rbdock ($Id: //depot/dev/client3/rdock/2013.1/src/exe/rbdock.cxx#4 $)

>  <Rbt.Library>
libRbt.so (2013.1, Build901 2013/11/27)

>  <Rbt.Parameter_File>
/home/fstefaniak/progs/rDock//data/scripts/dock_solv.prm

>  <Rbt.Receptor>
4tzx.prm

>  <SCORE>
-46.5899

>  <SCORE.INTER>
-26.523

>  <SCORE.INTER.CONST>
1

>  <SCORE.INTER.POLAR>
-3.61396

>  <SCORE.INTER.ROT>
4

>  <SCORE.INTER.SOLV>
13.8332

>  <SCORE.INTER.VDW>
-16.5132

>  <SCORE.INTER.norm>
-2.21025

>  <SCORE.INTRA>
1.03279

>  <SCORE.INTRA.DIHEDRAL>
1.0713

>  <SCORE.INTRA.DIHEDRAL.0>
1.82166

>  <SCORE.INTRA.POLAR>
0

>  <SCORE.INTRA.POLAR.0>
0

>  <SCORE.INTRA.REPUL>
0

>  <SCORE.INTRA.REPUL.0>
0

>  <SCORE.INTRA.SOLV>
0.211695

>  <SCORE.INTRA.SOLV.lig_0>
-15.2803

>  <SCORE.INTRA.VDW>
0.391293

>  <SCORE.INTRA.VDW.0>
-0.554709

>  <SCORE.INTRA.norm>
0.086066

>  <SCORE.RESTR>
0

>  <SCORE.RESTR.CAVITY>
0

>  <SCORE.RESTR.norm>
0

>  <SCORE.SYSTEM>
-21.0996

>  <SCORE.SYSTEM.CONST>
0

>  <SCORE.SYSTEM.DIHEDRAL>
4.19254

>  <SCORE.SYSTEM.POLAR>
-3.03669

>  <SCORE.SYSTEM.SOLV>
0.195956

>  <SCORE.SYSTEM.VDW>
-5.40695

>  <SCORE.SYSTEM.norm>
-1.7583

>  <SCORE.heavy>
12

>  <SCORE.norm>
-3.88249

$$$$
P133629862
 OpenBabel12072022113D
libRbt.so/2013.1/901 2013/11/27
 15 15  0  0  0  0  0  0  0  0999 V2000
  -25.8416   14.1589  -16.7322 C   0  0  0  0  0  0  0  0  0  0  0  0
  -27.0331   14.3105  -16.7510 C   0  0  0  0  0  0  0  0  0  0  0  0
  -28.4854   14.5013  -16.7765 C   0  0  0  0  0  0  0  0  0  0  0  0
  -28.7956   15.9078  -16.6911 N   0  0  0  0  0  0  0  0  0  0  0  0
  -29.6014   16.3811  -15.6781 C   0  0  0  0  0  0  0  0  0  0  0  0
  -30.0273   15.6607  -14.7810 O   0  0  0  0  0  0  0  0  0  0  0  0
  -29.9037   17.8690  -15.7792 C   0  0  2  0  0  0  0  0  0  0  0  0
  -30.8674   18.2877  -14.6770 C   0  0  0  0  0  0  0  0  0  0  0  0
  -32.1825   18.4030  -15.2538 O   0  0  0  0  0  0  0  0  0  0  0  0
  -32.1042   17.9725  -16.6227 C   0  0  0  0  0  0  0  0  0  0  0  0
  -30.6578   18.2159  -17.0528 C   0  0  1  0  0  0  0  0  0  0  0  0
  -30.4418   19.6389  -17.3988 N   0  0  0  0  0  0  0  0  0  0  0  0
  -28.6519   16.4734  -17.5171 H   0  0  0  0  0  0  0  0  0  0  0  0
  -31.1780   20.1981  -16.9599 H   0  0  0  0  0  0  0  0  0  0  0  0
  -30.5925   19.7570  -18.4019 H   0  0  0  0  0  0  0  0  0  0  0  0
  1  2  3  0  0  0  0
  2  3  1  0  0  0  0
  3  4  1  0  0  0  0
  4  5  1  0  0  0  0
  4 13  1  0  0  0  0
  5  6  2  0  0  0  0
  7  8  1  0  0  0  0
  7  5  1  6  0  0  0
  7 11  1  0  0  0  0
  8  9  1  0  0  0  0
  9 10  1  0  0  0  0
 10 11  1  0  0  0  0
 11 12  1  1  0  0  0
 12 14  1  0  0  0  0
 12 15  1  0  0  0  0
M  END
>  <CHROM.0>
-57.97884241,-62.26747443,-65.17332601,-43.31322541,-57.15619704,-60.55069122
-66.31237958,-58.77088041,-169.01902498

>  <CHROM.1>
-27.36664928,-122.83909928,176.38998267,-90.81433962,-29.75199336,16.85272292
-16.17440485,-0.46921087,0.65552032,-0.75268186

>  <Name>
P133629862

>  <RI>
0

>  <Rbt.Current_Directory>
/home/fstefaniak/projects/zuza/docking/adenine/4TZX

>  <Rbt.Executable>
rbdock ($Id: //depot/dev/client3/rdock/2013.1/src/exe/rbdock.cxx#4 $)

>  <Rbt.Library>
libRbt.so (2013.1, Build901 2013/11/27)

>  <Rbt.Parameter_File>
/home/fstefaniak/progs/rDock//data/scripts/dock_solv.prm

>  <Rbt.Receptor>
4tzx.prm

>  <SCORE>
-46.588

>  <SCORE.INTER>
-26.5323

>  <SCORE.INTER.CONST>
1

>  <SCORE.INTER.POLAR>
-3.58749

>  <SCORE.INTER.ROT>
4

>  <SCORE.INTER.SOLV>
13.8061

>  <SCORE.INTER.VDW>
-16.5986

>  <SCORE.INTER.norm>
-2.21103

>  <SCORE.INTRA>
1.0985

>  <SCORE.INTRA.DIHEDRAL>
1.17123

>  <SCORE.INTRA.DIHEDRAL.0>
1.82166

>  <SCORE.INTRA.POLAR>
0

>  <SCORE.INTRA.POLAR.0>
0

>  <SCORE.INTRA.REPUL>
0

>  <SCORE.INTRA.REPUL.0>
0

>  <SCORE.INTRA.SOLV>
0.214357

>  <SCORE.INTRA.SOLV.lig_0>
-15.2803

>  <SCORE.INTRA.VDW>
0.405711

>  <SCORE.INTRA.VDW.0>
-0.554709

>  <SCORE.INTRA.norm>
0.091542

>  <SCORE.RESTR>
0

>  <SCORE.RESTR.CAVITY>
0

>  <SCORE.RESTR.norm>
0

>  <SCORE.SYSTEM>
-21.1541

>  <SCORE.SYSTEM.CONST>
0

>  <SCORE.SYSTEM.DIHEDRAL>
4.29863

>  <SCORE.SYSTEM.POLAR>
-3.06516

>  <SCORE.SYSTEM.SOLV>
0.196317

>  <SCORE.SYSTEM.VDW>
-5.38387

>  <SCORE.SYSTEM.norm>
-1.76284

>  <SCORE.heavy>
12

>  <SCORE.norm>
-3.88233

$$$$
P133629862
 OpenBabel12072022113D
libRbt.so/2013.1/901 2013/11/27
 15 15  0  0  0  0  0  0  0  0999 V2000
  -25.8093   14.1759  -16.7616 C   0  0  0  0  0  0  0  0  0  0  0  0
  -27.0006   14.3300  -16.7543 C   0  0  0  0  0  0  0  0  0  0  0  0
  -28.4541   14.5128  -16.7413 C   0  0  0  0  0  0  0  0  0  0  0  0
  -28.7696   15.9185  -16.6620 N   0  0  0  0  0  0  0  0  0  0  0  0
  -29.6005   16.3887  -15.6680 C   0  0  0  0  0  0  0  0  0  0  0  0
  -30.0461   15.6664  -14.7821 O   0  0  0  0  0  0  0  0  0  0  0  0
  -29.9040   17.8760  -15.7749 C   0  0  2  0  0  0  0  0  0  0  0  0
  -30.8813   18.2948  -14.6848 C   0  0  0  0  0  0  0  0  0  0  0  0
  -32.1897   18.4072  -15.2772 O   0  0  0  0  0  0  0  0  0  0  0  0
  -32.0945   17.9748  -16.6444 C   0  0  0  0  0  0  0  0  0  0  0  0
  -30.6436   18.2199  -17.0578 C   0  0  1  0  0  0  0  0  0  0  0  0
  -30.4257   19.6428  -17.4033 N   0  0  0  0  0  0  0  0  0  0  0  0
  -28.6077   16.4853  -17.4838 H   0  0  0  0  0  0  0  0  0  0  0  0
  -31.1619   20.2026  -16.9653 H   0  0  0  0  0  0  0  0  0  0  0  0
  -30.5750   19.7612  -18.4066 H   0  0  0  0  0  0  0  0  0  0  0  0
  1  2  3  0  0  0  0
  2  3  1  0  0  0  0
  3  4  1  0  0  0  0
  4  5  1  0  0  0  0
  4 13  1  0  0  0  0
  5  6  2  0  0  0  0
  7  8  1  0  0  0  0
  7  5  1  6  0  0  0
  7 11  1  0  0  0  0
  8  9  1  0  0  0  0
  9 10  1  0  0  0  0
 10 11  1  0  0  0  0
 11 12  1  1  0  0  0
 12 14  1  0  0  0  0
 12 15  1  0  0  0  0
M  END
>  <CHROM.0>
-59.13240540,-61.51265926,-68.19079614,-43.58377417,-57.39357328,-59.33340836
-68.67579100,-61.64152856,-169.31879782

>  <CHROM.1>
138.45155807,-125.88266344,177.09971385,-90.18608753,-29.74227889,16.86083819
-16.17593057,-0.47325083,0.64553049,-0.74178448

>  <Name>
P133629862

>  <RI>
0

>  <Rbt.Current_Directory>
/home/fstefaniak/projects/zuza/docking/adenine/4TZX

>  <Rbt.Executable>
rbdock ($Id: //depot/dev/client3/rdock/2013.1/src/exe/rbdock.cxx#4 $)

>  <Rbt.Library>
libRbt.so (2013.1, Build901 2013/11/27)

>  <Rbt.Parameter_File>
/home/fstefaniak/progs/rDock//data/scripts/dock_solv.prm

>  <Rbt.Receptor>
4tzx.prm

>  <SCORE>
-46.4965

>  <SCORE.INTER>
-26.411

>  <SCORE.INTER.CONST>
1

>  <SCORE.INTER.POLAR>
-3.557

>  <SCORE.INTER.ROT>
4

>  <SCORE.INTER.SOLV>
13.8185

>  <SCORE.INTER.VDW>
-16.6235

>  <SCORE.INTER.norm>
-2.20092

>  <SCORE.INTRA>
1.0237

>  <SCORE.INTRA.DIHEDRAL>
1.04888

>  <SCORE.INTRA.DIHEDRAL.0>
1.82166

>  <SCORE.INTRA.POLAR>
0

>  <SCORE.INTRA.POLAR.0>
0

>  <SCORE.INTRA.REPUL>
0

>  <SCORE.INTRA.REPUL.0>
0

>  <SCORE.INTRA.SOLV>
0.203477

>  <SCORE.INTRA.SOLV.lig_0>
-15.2803

>  <SCORE.INTRA.VDW>
0.397523

>  <SCORE.INTRA.VDW.0>
-0.554709

>  <SCORE.INTRA.norm>
0.0853085

>  <SCORE.RESTR>
0

>  <SCORE.RESTR.CAVITY>
0

>  <SCORE.RESTR.norm>
0

>  <SCORE.SYSTEM>
-21.1092

>  <SCORE.SYSTEM.CONST>
0

>  <SCORE.SYSTEM.DIHEDRAL>
4.5418

>  <SCORE.SYSTEM.POLAR>
-3.0349

>  <SCORE.SYSTEM.SOLV>
0.180471

>  <SCORE.SYSTEM.VDW>
-5.53053

>  <SCORE.SYSTEM.norm>
-1.7591

>  <SCORE.heavy>
12

>  <SCORE.norm>
-3.87471

$$$$
P133633748
 OpenBabel12072022113D
libRbt.so/2013.1/901 2013/11/27
 16 17  0  0  0  0  0  0  0  0999 V2000
  -24.8821   16.3994  -17.2136 C   0  0  0  0  0  0  0  0  0  0  0  0
  -25.3773   14.9772  -16.8868 C   0  0  0  0  0  0  0  0  0  0  0  0
  -26.4291   15.6172  -15.9488 C   0  0  0  0  0  0  0  0  0  0  0  0
  -25.5022   16.8545  -15.8781 C   0  0  0  0  0  0  0  0  0  0  0  0
  -27.7340   15.8832  -16.5933 N   0  0  0  0  0  0  0  0  0  0  0  0
  -28.7234   16.6131  -15.9598 C   0  0  0  0  0  0  0  0  0  0  0  0
  -28.5838   17.0841  -14.8353 O   0  0  0  0  0  0  0  0  0  0  0  0
  -29.9907   16.7754  -16.7867 C   0  0  1  0  0  0  0  0  0  0  0  0
  -31.1903   17.0087  -15.8783 C   0  0  0  0  0  0  0  0  0  0  0  0
  -31.4827   18.4187  -15.8776 O   0  0  0  0  0  0  0  0  0  0  0  0
  -30.4746   19.0800  -16.6606 C   0  0  0  0  0  0  0  0  0  0  0  0
  -29.9568   18.0305  -17.6442 C   0  0  2  0  0  0  0  0  0  0  0  0
  -30.8779   17.8850  -18.7941 N   0  0  0  0  0  0  0  0  0  0  0  0
  -27.8916   15.5927  -17.5511 H   0  0  0  0  0  0  0  0  0  0  0  0
  -30.6088   17.0537  -19.3231 H   0  0  0  0  0  0  0  0  0  0  0  0
  -30.7218   18.6631  -19.4401 H   0  0  0  0  0  0  0  0  0  0  0  0
  1  2  1  0  0  0  0
  1  4  1  0  0  0  0
  2  3  1  0  0  0  0
  3  4  1  0  0  0  0
  3  5  1  0  0  0  0
  5  6  1  0  0  0  0
  5 14  1  0  0  0  0
  6  7  2  0  0  0  0
  8  6  1  1  0  0  0
  8  9  1  0  0  0  0
  8 12  1  0  0  0  0
  9 10  1  0  0  0  0
 10 11  1  0  0  0  0
 11 12  1  0  0  0  0
 12 13  1  6  0  0  0
 13 15  1  0  0  0  0
 13 16  1  0  0  0  0
M  END
>  <CHROM.0>
-59.72753889,-63.65979180,-65.49461045,-44.25252253,-55.85071584,-61.35165507
-68.31354007,-57.38055020,-168.98141548

>  <CHROM.1>
-171.07312431,154.96730583,-57.14349371,-28.59944726,16.99679712,-16.54844292
-0.10169375,0.37598450,-1.46500711

>  <Name>
P133633748

>  <RI>
0

>  <Rbt.Current_Directory>
/home/fstefaniak/projects/zuza/docking/adenine/4TZX

>  <Rbt.Executable>
rbdock ($Id: //depot/dev/client3/rdock/2013.1/src/exe/rbdock.cxx#4 $)

>  <Rbt.Library>
libRbt.so (2013.1, Build901 2013/11/27)

>  <Rbt.Parameter_File>
/home/fstefaniak/progs/rDock//data/scripts/dock_solv.prm

>  <Rbt.Receptor>
4tzx.prm

>  <SCORE>
-45.6719

>  <SCORE.INTER>
-24.8405

>  <SCORE.INTER.CONST>
1

>  <SCORE.INTER.POLAR>
-2.82252

>  <SCORE.INTER.ROT>
3

>  <SCORE.INTER.SOLV>
13.677

>  <SCORE.INTER.VDW>
-17.3109

>  <SCORE.INTER.norm>
-1.91081

>  <SCORE.INTRA>
0.310956

>  <SCORE.INTRA.DIHEDRAL>
1.25654

>  <SCORE.INTRA.DIHEDRAL.0>
2.15352

>  <SCORE.INTRA.POLAR>
0

>  <SCORE.INTRA.POLAR.0>
0

>  <SCORE.INTRA.REPUL>
0

>  <SCORE.INTRA.REPUL.0>
0

>  <SCORE.INTRA.SOLV>
-0.0642979

>  <SCORE.INTRA.SOLV.lig_0>
-14.0672

>  <SCORE.INTRA.VDW>
-0.285166

>  <SCORE.INTRA.VDW.0>
-0.908363

>  <SCORE.INTRA.norm>
0.0239197

>  <SCORE.RESTR>
0

>  <SCORE.RESTR.CAVITY>
0

>  <SCORE.RESTR.norm>
0

>  <SCORE.SYSTEM>
-21.1424

>  <SCORE.SYSTEM.CONST>
0

>  <SCORE.SYSTEM.DIHEDRAL>
4.41212

>  <SCORE.SYSTEM.POLAR>
-3.03354

>  <SCORE.SYSTEM.SOLV>
0.185524

>  <SCORE.SYSTEM.VDW>
-5.51567

>  <SCORE.SYSTEM.norm>
-1.62634

>  <SCORE.heavy>
13

>  <SCORE.norm>
-3.51323

$$$$
P133633748
 OpenBabel12072022113D
libRbt.so/2013.1/901 2013/11/27
 16 17  0  0  0  0  0  0  0  0999 V2000
  -24.9121   16.2270  -17.2466 C   0  0  0  0  0  0  0  0  0  0  0  0
  -25.4707   14.8535  -16.8268 C   0  0  0  0  0  0  0  0  0  0  0  0
  -26.4907   15.6013  -15.9345 C   0  0  0  0  0  0  0  0  0  0  0  0
  -25.5084   16.7971  -15.9448 C   0  0  0  0  0  0  0  0  0  0  0  0
  -27.7833   15.8830  -16.5967 N   0  0  0  0  0  0  0  0  0  0  0  0
  -28.7698   16.6305  -15.9793 C   0  0  0  0  0  0  0  0  0  0  0  0
  -28.6373   17.1051  -14.8555 O   0  0  0  0  0  0  0  0  0  0  0  0
  -30.0241   16.8070  -16.8229 C   0  0  1  0  0  0  0  0  0  0  0  0
  -31.1936   17.2410  -15.9497 C   0  0  0  0  0  0  0  0  0  0  0  0
  -31.3654   18.6621  -16.1069 O   0  0  0  0  0  0  0  0  0  0  0  0
  -30.3099   19.1441  -16.9556 C   0  0  0  0  0  0  0  0  0  0  0  0
  -29.8895   17.9515  -17.8147 C   0  0  2  0  0  0  0  0  0  0  0  0
  -30.8270   17.7580  -18.9440 N   0  0  0  0  0  0  0  0  0  0  0  0
  -27.9332   15.5899  -17.5550 H   0  0  0  0  0  0  0  0  0  0  0  0
  -30.6078   18.4425  -19.6696 H   0  0  0  0  0  0  0  0  0  0  0  0
  -31.7703   18.0049  -18.6335 H   0  0  0  0  0  0  0  0  0  0  0  0
  1  2  1  0  0  0  0
  1  4  1  0  0  0  0
  2  3  1  0  0  0  0
  3  4  1  0  0  0  0
  3  5  1  0  0  0  0
  5  6  1  0  0  0  0
  5 14  1  0  0  0  0
  6  7  2  0  0  0  0
  8  6  1  1  0  0  0
  8  9  1  0  0  0  0
  8 12  1  0  0  0  0
  9 10  1  0  0  0  0
 10 11  1  0  0  0  0
 11 12  1  0  0  0  0
 12 13  1  6  0  0  0
 13 15  1  0  0  0  0
 13 16  1  0  0  0  0
M  END
>  <CHROM.0>
-60.95401622,-63.14388665,-63.75288274,-42.35774088,-56.60467869,-66.38856555
-67.07964928,-59.19743128,-168.89125452

>  <CHROM.1>
-175.06918976,162.33742784,-170.30946227,-28.60231654,17.00639827,-16.62506149
-0.12134042,0.41273529,-1.50039934

>  <Name>
P133633748

>  <RI>
0

>  <Rbt.Current_Directory>
/home/fstefaniak/projects/zuza/docking/adenine/4TZX

>  <Rbt.Executable>
rbdock ($Id: //depot/dev/client3/rdock/2013.1/src/exe/rbdock.cxx#4 $)

>  <Rbt.Library>
libRbt.so (2013.1, Build901 2013/11/27)

>  <Rbt.Parameter_File>
/home/fstefaniak/progs/rDock//data/scripts/dock_solv.prm

>  <Rbt.Receptor>
4tzx.prm

>  <SCORE>
-45.4427

>  <SCORE.INTER>
-24.8856

>  <SCORE.INTER.CONST>
1

>  <SCORE.INTER.POLAR>
-2.70198

>  <SCORE.INTER.ROT>
3

>  <SCORE.INTER.SOLV>
13.634

>  <SCORE.INTER.VDW>
-17.7285

>  <SCORE.INTER.norm>
-1.91428

>  <SCORE.INTRA>
0.613097

>  <SCORE.INTRA.DIHEDRAL>
0.829115

>  <SCORE.INTRA.DIHEDRAL.0>
2.15352

>  <SCORE.INTRA.POLAR>
0

>  <SCORE.INTRA.POLAR.0>
0

>  <SCORE.INTRA.REPUL>
0

>  <SCORE.INTRA.REPUL.0>
0

>  <SCORE.INTRA.SOLV>
0.0452916

>  <SCORE.INTRA.SOLV.lig_0>
-14.0672

>  <SCORE.INTRA.VDW>
0.175894

>  <SCORE.INTRA.VDW.0>
-0.908363

>  <SCORE.INTRA.norm>
0.0471613

>  <SCORE.RESTR>
0

>  <SCORE.RESTR.CAVITY>
0

>  <SCORE.RESTR.norm>
0

>  <SCORE.SYSTEM>
-21.1701

>  <SCORE.SYSTEM.CONST>
0

>  <SCORE.SYSTEM.DIHEDRAL>
4.63957

>  <SCORE.SYSTEM.POLAR>
-3.06417

>  <SCORE.SYSTEM.SOLV>
0.178997

>  <SCORE.SYSTEM.VDW>
-5.50571

>  <SCORE.SYSTEM.norm>
-1.62847

>  <SCORE.heavy>
13

>  <SCORE.norm>
-3.49559

$$$$
P133633748
 OpenBabel12072022113D
libRbt.so/2013.1/901 2013/11/27
 16 17  0  0  0  0  0  0  0  0999 V2000
  -24.8871   16.3426  -17.2167 C   0  0  0  0  0  0  0  0  0  0  0  0
  -25.4012   14.9312  -16.8728 C   0  0  0  0  0  0  0  0  0  0  0  0
  -26.4470   15.5966  -15.9459 C   0  0  0  0  0  0  0  0  0  0  0  0
  -25.5045   16.8228  -15.8887 C   0  0  0  0  0  0  0  0  0  0  0  0
  -27.7468   15.8708  -16.5971 N   0  0  0  0  0  0  0  0  0  0  0  0
  -28.7325   16.6120  -15.9711 C   0  0  0  0  0  0  0  0  0  0  0  0
  -28.5936   17.0870  -14.8482 O   0  0  0  0  0  0  0  0  0  0  0  0
  -29.9949   16.7814  -16.8041 C   0  0  1  0  0  0  0  0  0  0  0  0
  -31.1835   17.0992  -15.9069 C   0  0  0  0  0  0  0  0  0  0  0  0
  -31.4253   18.5173  -15.9712 O   0  0  0  0  0  0  0  0  0  0  0  0
  -30.3957   19.1052  -16.7843 C   0  0  0  0  0  0  0  0  0  0  0  0
  -29.9179   17.9935  -17.7186 C   0  0  2  0  0  0  0  0  0  0  0  0
  -30.8460   17.8283  -18.8602 N   0  0  0  0  0  0  0  0  0  0  0  0
  -27.9029   15.5772  -17.5542 H   0  0  0  0  0  0  0  0  0  0  0  0
  -30.4814   17.0965  -19.4724 H   0  0  0  0  0  0  0  0  0  0  0  0
  -30.8197   18.6778  -19.4302 H   0  0  0  0  0  0  0  0  0  0  0  0
  1  2  1  0  0  0  0
  1  4  1  0  0  0  0
  2  3  1  0  0  0  0
  3  4  1  0  0  0  0
  3  5  1  0  0  0  0
  5  6  1  0  0  0  0
  5 14  1  0  0  0  0
  6  7  2  0  0  0  0
  8  6  1  1  0  0  0
  8  9  1  0  0  0  0
  8 12  1  0  0  0  0
  9 10  1  0  0  0  0
 10 11  1  0  0  0  0
 11 12  1  0  0  0  0
 12 13  1  6  0  0  0
 13 15  1  0  0  0  0
 13 16  1  0  0  0  0
M  END
>  <CHROM.0>
-55.19045370,-57.55181767,-44.56532025,-43.37270076,-57.52859457,-53.93138624
-64.81454240,-172.50787382,-168.53785000

>  <CHROM.1>
-171.61548989,157.83320640,-70.18554915,-28.58903358,16.99545165,-16.58237929
-0.10844120,0.39154523,-1.48689992

>  <Name>
P133633748

>  <RI>
0

>  <Rbt.Current_Directory>
/home/fstefaniak/projects/zuza/docking/adenine/4TZX

>  <Rbt.Executable>
rbdock ($Id: //depot/dev/client3/rdock/2013.1/src/exe/rbdock.cxx#4 $)

>  <Rbt.Library>
libRbt.so (2013.1, Build901 2013/11/27)

>  <Rbt.Parameter_File>
/home/fstefaniak/progs/rDock//data/scripts/dock_solv.prm

>  <Rbt.Receptor>
4tzx.prm

>  <SCORE>
-45.256

>  <SCORE.INTER>
-25.0247

>  <SCORE.INTER.CONST>
1

>  <SCORE.INTER.POLAR>
-2.75152

>  <SCORE.INTER.ROT>
3

>  <SCORE.INTER.SOLV>
13.7573

>  <SCORE.INTER.VDW>
-17.6972

>  <SCORE.INTER.norm>
-1.92498

>  <SCORE.INTRA>
0.215358

>  <SCORE.INTRA.DIHEDRAL>
1.02359

>  <SCORE.INTRA.DIHEDRAL.0>
2.15352

>  <SCORE.INTRA.POLAR>
0

>  <SCORE.INTRA.POLAR.0>
0

>  <SCORE.INTRA.REPUL>
0

>  <SCORE.INTRA.REPUL.0>
0

>  <SCORE.INTRA.SOLV>
-0.0515928

>  <SCORE.INTRA.SOLV.lig_0>
-14.0672

>  <SCORE.INTRA.VDW>
-0.270639

>  <SCORE.INTRA.VDW.0>
-0.908363

>  <SCORE.INTRA.norm>
0.016566

>  <SCORE.RESTR>
0

>  <SCORE.RESTR.CAVITY>
0

>  <SCORE.RESTR.norm>
0

>  <SCORE.SYSTEM>
-20.4466

>  <SCORE.SYSTEM.CONST>
0

>  <SCORE.SYSTEM.DIHEDRAL>
5.66179

>  <SCORE.SYSTEM.POLAR>
-3.2451

>  <SCORE.SYSTEM.SOLV>
0.108963

>  <SCORE.SYSTEM.VDW>
-4.73767

>  <SCORE.SYSTEM.norm>
-1.57282

>  <SCORE.heavy>
13

>  <SCORE.norm>
-3.48123

$$$$
P133651182
 OpenBabel12072022113D
libRbt.so/2013.1/901 2013/11/27
 16 16  0  0  0  0  0  0  0  0999 V2000
  -25.7354   15.4139  -17.1309 C   0  0  0  0  0  0  0  0  0  0  0  0
  -26.7940   14.3689  -16.7553 C   0  0  1  0  0  0  0  0  0  0  0  0
  -27.2991   13.5764  -17.9613 C   0  0  0  0  0  0  0  0  0  0  0  0
  -27.6323   12.2476  -17.5114 O   0  0  0  0  0  0  0  0  0  0  0  0
  -27.3070   12.1500  -16.1137 C   0  0  0  0  0  0  0  0  0  0  0  0
  -26.2706   13.2465  -15.8435 C   0  0  1  0  0  0  0  0  0  0  0  0
  -24.9228   12.7632  -16.2250 N   0  0  0  0  0  0  0  0  0  0  0  0
  -27.9695   15.0960  -16.0721 C   0  0  0  0  0  0  0  0  0  0  0  0
  -28.4285   14.7471  -14.9862 O   0  0  0  0  0  0  0  0  0  0  0  0
  -28.4708   16.1885  -16.7426 N   0  0  0  0  0  0  0  0  0  0  0  0
  -29.5781   16.9399  -16.2037 C   0  0  0  0  0  0  0  0  0  0  0  0
  -30.1792   17.7651  -17.2546 C   0  0  0  0  0  0  0  0  0  0  0  0
  -30.6725   18.4407  -18.1168 C   0  0  0  0  0  0  0  0  0  0  0  0
  -24.2369   13.4906  -16.0093 H   0  0  0  0  0  0  0  0  0  0  0  0
  -24.8862   12.6634  -17.2406 H   0  0  0  0  0  0  0  0  0  0  0  0
  -28.1041   16.4625  -17.6433 H   0  0  0  0  0  0  0  0  0  0  0  0
  2  1  1  6  0  0  0
  2  3  1  0  0  0  0
  2  8  1  0  0  0  0
  2  6  1  0  0  0  0
  3  4  1  0  0  0  0
  4  5  1  0  0  0  0
  5  6  1  0  0  0  0
  6  7  1  6  0  0  0
  7 14  1  0  0  0  0
  7 15  1  0  0  0  0
  8  9  2  0  0  0  0
  8 10  1  0  0  0  0
 10 11  1  0  0  0  0
 10 16  1  0  0  0  0
 11 12  1  0  0  0  0
 12 13  3  0  0  0  0
M  END
>  <CHROM.0>
-59.90295580,-72.16211753,62.27572283,-45.60450376,-57.26135634,-178.30443553
56.74343858,-58.48476791,-169.02145612

>  <CHROM.1>
-128.55155656,70.25658177,-162.76495066,67.40734316,-27.72436896,14.76440869
-16.68006211,-0.91092682,0.07660185,-0.18791911

>  <Name>
P133651182

>  <RI>
0

>  <Rbt.Current_Directory>
/home/fstefaniak/projects/zuza/docking/adenine/4TZX

>  <Rbt.Executable>
rbdock ($Id: //depot/dev/client3/rdock/2013.1/src/exe/rbdock.cxx#4 $)

>  <Rbt.Library>
libRbt.so (2013.1, Build901 2013/11/27)

>  <Rbt.Parameter_File>
/home/fstefaniak/progs/rDock//data/scripts/dock_solv.prm

>  <Rbt.Receptor>
4tzx.prm

>  <SCORE>
-36.5694

>  <SCORE.INTER>
-18.5685

>  <SCORE.INTER.CONST>
1

>  <SCORE.INTER.POLAR>
-2.45924

>  <SCORE.INTER.ROT>
4

>  <SCORE.INTER.SOLV>
10.1356

>  <SCORE.INTER.VDW>
-13.8268

>  <SCORE.INTER.norm>
-1.42835

>  <SCORE.INTRA>
0.66941

>  <SCORE.INTRA.DIHEDRAL>
0.523282

>  <SCORE.INTRA.DIHEDRAL.0>
1.36138

>  <SCORE.INTRA.POLAR>
0

>  <SCORE.INTRA.POLAR.0>
0

>  <SCORE.INTRA.REPUL>
0

>  <SCORE.INTRA.REPUL.0>
0

>  <SCORE.INTRA.SOLV>
-0.0262707

>  <SCORE.INTRA.SOLV.lig_0>
-14.007

>  <SCORE.INTRA.VDW>
0.420904

>  <SCORE.INTRA.VDW.0>
-0.3462

>  <SCORE.INTRA.norm>
0.0514931

>  <SCORE.RESTR>
0

>  <SCORE.RESTR.CAVITY>
0

>  <SCORE.RESTR.norm>
0

>  <SCORE.SYSTEM>
-18.6703

>  <SCORE.SYSTEM.CONST>
0

>  <SCORE.SYSTEM.DIHEDRAL>
4.42314

>  <SCORE.SYSTEM.POLAR>
-2.96872

>  <SCORE.SYSTEM.SOLV>
-0.0512254

>  <SCORE.SYSTEM.VDW>
-4.00844

>  <SCORE.SYSTEM.norm>
-1.43618

>  <SCORE.heavy>
13

>  <SCORE.norm>
-2.81303

$$$$
P133651182
 OpenBabel12072022113D
libRbt.so/2013.1/901 2013/11/27
 16 16  0  0  0  0  0  0  0  0999 V2000
  -29.8172   17.2721  -17.7844 C   0  0  0  0  0  0  0  0  0  0  0  0
  -30.0374   16.9747  -16.2955 C   0  0  1  0  0  0  0  0  0  0  0  0
  -29.0995   17.7699  -15.3868 C   0  0  0  0  0  0  0  0  0  0  0  0
  -29.7972   18.0372  -14.1535 O   0  0  0  0  0  0  0  0  0  0  0  0
  -31.1306   17.5096  -14.2663 C   0  0  0  0  0  0  0  0  0  0  0  0
  -31.4172   17.4030  -15.7683 C   0  0  1  0  0  0  0  0  0  0  0  0
  -31.8586   18.7195  -16.2859 N   0  0  0  0  0  0  0  0  0  0  0  0
  -29.8345   15.4631  -16.0697 C   0  0  0  0  0  0  0  0  0  0  0  0
  -30.6232   14.7735  -15.4261 O   0  0  0  0  0  0  0  0  0  0  0  0
  -28.7173   14.9132  -16.6559 N   0  0  0  0  0  0  0  0  0  0  0  0
  -28.4195   13.5099  -16.5030 C   0  0  0  0  0  0  0  0  0  0  0  0
  -28.0446   12.9357  -17.7978 C   0  0  0  0  0  0  0  0  0  0  0  0
  -27.7360   12.4650  -18.8591 C   0  0  0  0  0  0  0  0  0  0  0  0
  -32.1665   18.6079  -17.2549 H   0  0  0  0  0  0  0  0  0  0  0  0
  -31.0483   19.3385  -16.3397 H   0  0  0  0  0  0  0  0  0  0  0  0
  -28.0611   15.4851  -17.1690 H   0  0  0  0  0  0  0  0  0  0  0  0
  2  1  1  6  0  0  0
  2  3  1  0  0  0  0
  2  8  1  0  0  0  0
  2  6  1  0  0  0  0
  3  4  1  0  0  0  0
  4  5  1  0  0  0  0
  5  6  1  0  0  0  0
  6  7  1  6  0  0  0
  7 14  1  0  0  0  0
  7 15  1  0  0  0  0
  8  9  2  0  0  0  0
  8 10  1  0  0  0  0
 10 11  1  0  0  0  0
 10 16  1  0  0  0  0
 11 12  1  0  0  0  0
 12 13  3  0  0  0  0
M  END
>  <CHROM.0>
-59.66534934,-62.72570780,-63.01943149,-43.09164464,-58.18463081,-62.80140032
-69.65910023,-63.44905503,-168.45015378

>  <CHROM.1>
-132.48476633,75.82281587,134.52890506,99.84601475,-29.77137119,16.06700913
-16.21073796,2.93424131,-1.10605134,1.79778208

>  <Name>
P133651182

>  <RI>
0

>  <Rbt.Current_Directory>
/home/fstefaniak/projects/zuza/docking/adenine/4TZX

>  <Rbt.Executable>
rbdock ($Id: //depot/dev/client3/rdock/2013.1/src/exe/rbdock.cxx#4 $)

>  <Rbt.Library>
libRbt.so (2013.1, Build901 2013/11/27)

>  <Rbt.Parameter_File>
/home/fstefaniak/progs/rDock//data/scripts/dock_solv.prm

>  <Rbt.Receptor>
4tzx.prm

>  <SCORE>
-36.5668

>  <SCORE.INTER>
-16.3835

>  <SCORE.INTER.CONST>
1

>  <SCORE.INTER.POLAR>
-1.78435

>  <SCORE.INTER.ROT>
4

>  <SCORE.INTER.SOLV>
14.3376

>  <SCORE.INTER.VDW>
-16.0204

>  <SCORE.INTER.norm>
-1.26027

>  <SCORE.INTRA>
0.961402

>  <SCORE.INTRA.DIHEDRAL>
0.902604

>  <SCORE.INTRA.DIHEDRAL.0>
1.36138

>  <SCORE.INTRA.POLAR>
0

>  <SCORE.INTRA.POLAR.0>
0

>  <SCORE.INTRA.REPUL>
0

>  <SCORE.INTRA.REPUL.0>
0

>  <SCORE.INTRA.SOLV>
-0.0085211

>  <SCORE.INTRA.SOLV.lig_0>
-14.007

>  <SCORE.INTRA.VDW>
0.514361

>  <SCORE.INTRA.VDW.0>
-0.3462

>  <SCORE.INTRA.norm>
0.073954

>  <SCORE.RESTR>
0

>  <SCORE.RESTR.CAVITY>
0

>  <SCORE.RESTR.norm>
0

>  <SCORE.SYSTEM>
-21.1448

>  <SCORE.SYSTEM.CONST>
0

>  <SCORE.SYSTEM.DIHEDRAL>
4.59357

>  <SCORE.SYSTEM.POLAR>
-3.05607

>  <SCORE.SYSTEM.SOLV>
0.173212

>  <SCORE.SYSTEM.VDW>
-5.49855

>  <SCORE.SYSTEM.norm>
-1.62652

>  <SCORE.heavy>
13

>  <SCORE.norm>
-2.81283

$$$$
P133651182
 OpenBabel12072022113D
libRbt.so/2013.1/901 2013/11/27
 16 16  0  0  0  0  0  0  0  0999 V2000
  -27.4333   12.5353  -17.6334 C   0  0  0  0  0  0  0  0  0  0  0  0
  -26.7092   13.1410  -16.4241 C   0  0  1  0  0  0  0  0  0  0  0  0
  -27.1390   12.5111  -15.0989 C   0  0  0  0  0  0  0  0  0  0  0  0
  -26.0048   12.5320  -14.2088 O   0  0  0  0  0  0  0  0  0  0  0  0
  -24.8822   13.0802  -14.9218 C   0  0  0  0  0  0  0  0  0  0  0  0
  -25.1924   12.8878  -16.4105 C   0  0  1  0  0  0  0  0  0  0  0  0
  -24.8249   11.5127  -16.8224 N   0  0  0  0  0  0  0  0  0  0  0  0
  -26.9894   14.6570  -16.4029 C   0  0  0  0  0  0  0  0  0  0  0  0
  -26.2123   15.4851  -16.8741 O   0  0  0  0  0  0  0  0  0  0  0  0
  -28.1859   15.0386  -15.8398 N   0  0  0  0  0  0  0  0  0  0  0  0
  -28.5498   16.4320  -15.7552 C   0  0  0  0  0  0  0  0  0  0  0  0
  -29.9970   16.5587  -15.5646 C   0  0  0  0  0  0  0  0  0  0  0  0
  -31.1834   16.6638  -15.4087 C   0  0  0  0  0  0  0  0  0  0  0  0
  -23.8363   11.3569  -16.6111 H   0  0  0  0  0  0  0  0  0  0  0  0
  -24.8873   11.4479  -17.8396 H   0  0  0  0  0  0  0  0  0  0  0  0
  -28.8146   14.3579  -15.4369 H   0  0  0  0  0  0  0  0  0  0  0  0
  2  1  1  6  0  0  0
  2  3  1  0  0  0  0
  2  8  1  0  0  0  0
  2  6  1  0  0  0  0
  3  4  1  0  0  0  0
  4  5  1  0  0  0  0
  5  6  1  0  0  0  0
  6  7  1  1  0  0  0
  7 14  1  0  0  0  0
  7 15  1  0  0  0  0
  8  9  2  0  0  0  0
  8 10  1  0  0  0  0
 10 11  1  0  0  0  0
 10 16  1  0  0  0  0
 11 12  1  0  0  0  0
 12 13  3  0  0  0  0
M  END
>  <CHROM.0>
-60.68895972,-59.18323917,-72.06959424,-42.84099685,-59.78572785,57.49255678
-168.96864325,-56.42425815,-169.37000050

>  <CHROM.1>
-96.63807058,-168.68250985,160.51528963,-160.95024941,-27.09841349,14.01050954
-15.95727847,-0.16707992,0.73650283,-1.24421219

>  <Name>
P133651182

>  <RI>
0

>  <Rbt.Current_Directory>
/home/fstefaniak/projects/zuza/docking/adenine/4TZX

>  <Rbt.Executable>
rbdock ($Id: //depot/dev/client3/rdock/2013.1/src/exe/rbdock.cxx#4 $)

>  <Rbt.Library>
libRbt.so (2013.1, Build901 2013/11/27)

>  <Rbt.Parameter_File>
/home/fstefaniak/progs/rDock//data/scripts/dock_solv.prm

>  <Rbt.Receptor>
4tzx.prm

>  <SCORE>
-35.4892

>  <SCORE.INTER>
-17.0775

>  <SCORE.INTER.CONST>
1

>  <SCORE.INTER.POLAR>
-1.68467

>  <SCORE.INTER.ROT>
4

>  <SCORE.INTER.SOLV>
8.86744

>  <SCORE.INTER.VDW>
-14.9919

>  <SCORE.INTER.norm>
-1.31366

>  <SCORE.INTRA>
0.820738

>  <SCORE.INTRA.DIHEDRAL>
1.84591

>  <SCORE.INTRA.DIHEDRAL.0>
1.36138

>  <SCORE.INTRA.POLAR>
0

>  <SCORE.INTRA.POLAR.0>
0

>  <SCORE.INTRA.REPUL>
0

>  <SCORE.INTRA.REPUL.0>
0

>  <SCORE.INTRA.SOLV>
-0.0161663

>  <SCORE.INTRA.SOLV.lig_0>
-14.007

>  <SCORE.INTRA.VDW>
-0.0941324

>  <SCORE.INTRA.VDW.0>
-0.3462

>  <SCORE.INTRA.norm>
0.0631337

>  <SCORE.RESTR>
0.214219

>  <SCORE.RESTR.CAVITY>
0.214219

>  <SCORE.RESTR.norm>
0.0164783

>  <SCORE.SYSTEM>
-19.4466

>  <SCORE.SYSTEM.CONST>
0

>  <SCORE.SYSTEM.DIHEDRAL>
5.21882

>  <SCORE.SYSTEM.POLAR>
-3.02805

>  <SCORE.SYSTEM.SOLV>
0.027984

>  <SCORE.SYSTEM.VDW>
-4.61984

>  <SCORE.SYSTEM.norm>
-1.49589

>  <SCORE.heavy>
13

>  <SCORE.norm>
-2.72994

$$$$
P133654346
 OpenBabel12072022113D
libRbt.so/2013.1/901 2013/11/27
 17 18  0  0  0  0  0  0  0  0999 V2000
  -30.0618   17.8292  -18.5432 C   0  0  0  0  0  0  0  0  0  0  0  0
  -30.0334   18.0438  -17.0681 C   0  0  1  0  0  0  0  0  0  0  0  0
  -30.6126   17.0171  -16.1351 C   0  0  0  0  0  0  0  0  0  0  0  0
  -29.1231   17.2423  -16.1718 C   0  0  1  0  0  0  0  0  0  0  0  0
  -28.2497   16.2374  -16.6903 N   0  0  0  0  0  0  0  0  0  0  0  0
  -27.9775   15.0717  -15.9949 C   0  0  0  0  0  0  0  0  0  0  0  0
  -28.4911   14.8275  -14.9028 O   0  0  0  0  0  0  0  0  0  0  0  0
  -26.9803   14.1164  -16.6802 C   0  0  2  0  0  0  0  0  0  0  0  0
  -27.6498   13.4848  -17.9006 C   0  0  0  0  0  0  0  0  0  0  0  0
  -28.3626   12.3169  -17.4495 O   0  0  0  0  0  0  0  0  0  0  0  0
  -27.9538   12.0267  -16.1008 C   0  0  0  0  0  0  0  0  0  0  0  0
  -26.6925   12.8534  -15.8554 C   0  0  2  0  0  0  0  0  0  0  0  0
  -26.3000   13.0534  -14.4619 N   0  0  0  0  0  0  0  0  0  0  0  0
  -25.6964   14.8745  -17.0301 C   0  0  0  0  0  0  0  0  0  0  0  0
  -27.8200   16.4054  -17.5903 H   0  0  0  0  0  0  0  0  0  0  0  0
  -25.2950   12.9140  -14.3611 H   0  0  0  0  0  0  0  0  0  0  0  0
  -26.7299   12.3054  -13.8998 H   0  0  0  0  0  0  0  0  0  0  0  0
  2  1  1  6  0  0  0
  2  3  1  0  0  0  0
  2  4  1  0  0  0  0
  3  4  1  0  0  0  0
  4  5  1  6  0  0  0
  5  6  1  0  0  0  0
  5 15  1  0  0  0  0
  6  7  2  0  0  0  0
  8  9  1  0  0  0  0
  8 12  1  0  0  0  0
  8 14  1  6  0  0  0
  8  6  1  0  0  0  0
  9 10  1  0  0  0  0
 10 11  1  0  0  0  0
 11 12  1  0  0  0  0
 12 13  1  1  0  0  0
 13 16  1  0  0  0  0
 13 17  1  0  0  0  0
M  END
>  <CHROM.0>
-61.14870825,-74.45673210,-68.16510319,-42.24885227,-61.15311924,-62.44887283
-65.33212598,55.73081672,-167.89318316

>  <CHROM.1>
-144.31984823,-70.97238832,-103.57630939,-28.14204866,14.88944267,-16.49255635
2.83760923,-1.00139267,0.99070578

>  <Name>
P133654346

>  <RI>
0

>  <Rbt.Current_Directory>
/home/fstefaniak/projects/zuza/docking/adenine/4TZX

>  <Rbt.Executable>
rbdock ($Id: //depot/dev/client3/rdock/2013.1/src/exe/rbdock.cxx#4 $)

>  <Rbt.Library>
libRbt.so (2013.1, Build901 2013/11/27)

>  <Rbt.Parameter_File>
/home/fstefaniak/progs/rDock//data/scripts/dock_solv.prm

>  <Rbt.Receptor>
4tzx.prm

>  <SCORE>
-37.6808

>  <SCORE.INTER>
-19.1306

>  <SCORE.INTER.CONST>
1

>  <SCORE.INTER.POLAR>
-2.21685

>  <SCORE.INTER.ROT>
3

>  <SCORE.INTER.SOLV>
11.8118

>  <SCORE.INTER.VDW>
-14.9015

>  <SCORE.INTER.norm>
-1.36647

>  <SCORE.INTRA>
1.30252

>  <SCORE.INTRA.DIHEDRAL>
1.74945

>  <SCORE.INTRA.DIHEDRAL.0>
1.44444

>  <SCORE.INTRA.POLAR>
0

>  <SCORE.INTRA.POLAR.0>
0

>  <SCORE.INTRA.REPUL>
0

>  <SCORE.INTRA.REPUL.0>
0

>  <SCORE.INTRA.SOLV>
-0.217555

>  <SCORE.INTRA.SOLV.lig_0>
-12.3174

>  <SCORE.INTRA.VDW>
0.536569

>  <SCORE.INTRA.VDW.0>
-1.45316

>  <SCORE.INTRA.norm>
0.0930368

>  <SCORE.RESTR>
0

>  <SCORE.RESTR.CAVITY>
0

>  <SCORE.RESTR.norm>
0

>  <SCORE.SYSTEM>
-19.8528

>  <SCORE.SYSTEM.CONST>
0

>  <SCORE.SYSTEM.DIHEDRAL>
5.6852

>  <SCORE.SYSTEM.POLAR>
-3.05039

>  <SCORE.SYSTEM.SOLV>
-0.00222591

>  <SCORE.SYSTEM.VDW>
-4.96156

>  <SCORE.SYSTEM.norm>
-1.41806

>  <SCORE.heavy>
14

>  <SCORE.norm>
-2.69149

$$$$
P133654346
 OpenBabel12072022113D
libRbt.so/2013.1/901 2013/11/27
 17 18  0  0  0  0  0  0  0  0999 V2000
  -25.4917   14.1229  -16.0626 C   0  0  0  0  0  0  0  0  0  0  0  0
  -25.0576   15.5366  -15.8729 C   0  0  1  0  0  0  0  0  0  0  0  0
  -24.9677   16.4724  -17.0461 C   0  0  0  0  0  0  0  0  0  0  0  0
  -26.0290   16.6834  -15.9973 C   0  0  1  0  0  0  0  0  0  0  0  0
  -27.4078   16.4723  -16.3073 N   0  0  0  0  0  0  0  0  0  0  0  0
  -28.4241   17.0070  -15.5341 C   0  0  0  0  0  0  0  0  0  0  0  0
  -28.1950   17.7122  -14.5511 O   0  0  0  0  0  0  0  0  0  0  0  0
  -29.8527   16.6445  -15.9861 C   0  0  2  0  0  0  0  0  0  0  0  0
  -30.0221   17.0184  -17.4584 C   0  0  0  0  0  0  0  0  0  0  0  0
  -30.4231   18.4012  -17.5123 O   0  0  0  0  0  0  0  0  0  0  0  0
  -30.7826   18.8229  -16.1845 C   0  0  0  0  0  0  0  0  0  0  0  0
  -30.9286   17.5443  -15.3609 C   0  0  2  0  0  0  0  0  0  0  0  0
  -30.8980   17.6932  -13.9073 N   0  0  0  0  0  0  0  0  0  0  0  0
  -30.1197   15.1613  -15.7130 C   0  0  0  0  0  0  0  0  0  0  0  0
  -27.6275   15.9048  -17.1151 H   0  0  0  0  0  0  0  0  0  0  0  0
  -31.8236   17.9499  -13.5654 H   0  0  0  0  0  0  0  0  0  0  0  0
  -30.2984   18.4996  -13.6827 H   0  0  0  0  0  0  0  0  0  0  0  0
  2  1  1  6  0  0  0
  2  3  1  0  0  0  0
  2  4  1  0  0  0  0
  3  4  1  0  0  0  0
  4  5  1  6  0  0  0
  5  6  1  0  0  0  0
  5 15  1  0  0  0  0
  6  7  2  0  0  0  0
  8  9  1  0  0  0  0
  8 12  1  0  0  0  0
  8 14  1  1  0  0  0
  8  6  1  0  0  0  0
  9 10  1  0  0  0  0
 10 11  1  0  0  0  0
 11 12  1  0  0  0  0
 12 13  1  1  0  0  0
 13 16  1  0  0  0  0
 13 17  1  0  0  0  0
M  END
>  <CHROM.0>
-56.52407569,-62.29740484,-67.75335096,-41.92943403,-175.67649468,-63.78916313
-65.18318925,-59.11323647,-168.91248014

>  <CHROM.1>
127.73896749,-54.07764434,-155.97867585,-28.50692844,16.82221442,-15.95416326
0.10472107,-0.39262599,2.04291885

>  <Name>
P133654346

>  <RI>
0

>  <Rbt.Current_Directory>
/home/fstefaniak/projects/zuza/docking/adenine/4TZX

>  <Rbt.Executable>
rbdock ($Id: //depot/dev/client3/rdock/2013.1/src/exe/rbdock.cxx#4 $)

>  <Rbt.Library>
libRbt.so (2013.1, Build901 2013/11/27)

>  <Rbt.Parameter_File>
/home/fstefaniak/progs/rDock//data/scripts/dock_solv.prm

>  <Rbt.Receptor>
4tzx.prm

>  <SCORE>
-37.3149

>  <SCORE.INTER>
-16.7487

>  <SCORE.INTER.CONST>
1

>  <SCORE.INTER.POLAR>
-2.4614

>  <SCORE.INTER.ROT>
3

>  <SCORE.INTER.SOLV>
13.2036

>  <SCORE.INTER.VDW>
-12.9623

>  <SCORE.INTER.norm>
-1.19633

>  <SCORE.INTRA>
0.688475

>  <SCORE.INTRA.DIHEDRAL>
1.22003

>  <SCORE.INTRA.DIHEDRAL.0>
1.44444

>  <SCORE.INTRA.POLAR>
-1.81399e-05

>  <SCORE.INTRA.POLAR.0>
0

>  <SCORE.INTRA.REPUL>
0

>  <SCORE.INTRA.REPUL.0>
0

>  <SCORE.INTRA.SOLV>
-0.166823

>  <SCORE.INTRA.SOLV.lig_0>
-12.3174

>  <SCORE.INTRA.VDW>
0.161932

>  <SCORE.INTRA.VDW.0>
-1.45316

>  <SCORE.INTRA.norm>
0.0491768

>  <SCORE.RESTR>
0

>  <SCORE.RESTR.CAVITY>
0

>  <SCORE.RESTR.norm>
0

>  <SCORE.SYSTEM>
-21.2547

>  <SCORE.SYSTEM.CONST>
0

>  <SCORE.SYSTEM.DIHEDRAL>
4.74585

>  <SCORE.SYSTEM.POLAR>
-3.08641

>  <SCORE.SYSTEM.SOLV>
0.00590904

>  <SCORE.SYSTEM.VDW>
-5.46567

>  <SCORE.SYSTEM.norm>
-1.51819

>  <SCORE.heavy>
14

>  <SCORE.norm>
-2.66535

$$$$
P133654346
 OpenBabel12072022113D
libRbt.so/2013.1/901 2013/11/27
 17 18  0  0  0  0  0  0  0  0999 V2000
  -25.5007   14.1101  -16.0417 C   0  0  0  0  0  0  0  0  0  0  0  0
  -25.0520   15.5237  -15.8891 C   0  0  1  0  0  0  0  0  0  0  0  0
  -24.9560   16.4284  -17.0859 C   0  0  0  0  0  0  0  0  0  0  0  0
  -26.0123   16.6767  -16.0403 C   0  0  1  0  0  0  0  0  0  0  0  0
  -27.3939   16.4717  -16.3414 N   0  0  0  0  0  0  0  0  0  0  0  0
  -28.4028   17.0080  -15.5598 C   0  0  0  0  0  0  0  0  0  0  0  0
  -28.1643   17.7097  -14.5765 O   0  0  0  0  0  0  0  0  0  0  0  0
  -29.8358   16.6521  -16.0030 C   0  0  2  0  0  0  0  0  0  0  0  0
  -30.0189   17.0450  -17.4687 C   0  0  0  0  0  0  0  0  0  0  0  0
  -30.4193   18.4286  -17.5011 O   0  0  0  0  0  0  0  0  0  0  0  0
  -30.7662   18.8335  -16.1647 C   0  0  0  0  0  0  0  0  0  0  0  0
  -30.9052   17.5445  -15.3562 C   0  0  2  0  0  0  0  0  0  0  0  0
  -30.8609   17.6746  -13.9012 N   0  0  0  0  0  0  0  0  0  0  0  0
  -30.1013   15.1658  -15.7465 C   0  0  0  0  0  0  0  0  0  0  0  0
  -27.6213   15.9072  -17.1492 H   0  0  0  0  0  0  0  0  0  0  0  0
  -31.7886   17.9029  -13.5450 H   0  0  0  0  0  0  0  0  0  0  0  0
  -30.2794   18.4931  -13.6726 H   0  0  0  0  0  0  0  0  0  0  0  0
  2  1  1  6  0  0  0
  2  3  1  0  0  0  0
  2  4  1  0  0  0  0
  3  4  1  0  0  0  0
  4  5  1  6  0  0  0
  5  6  1  0  0  0  0
  5 15  1  0  0  0  0
  6  7  2  0  0  0  0
  8  9  1  0  0  0  0
  8 12  1  0  0  0  0
  8 14  1  1  0  0  0
  8  6  1  0  0  0  0
  9 10  1  0  0  0  0
 10 11  1  0  0  0  0
 11 12  1  0  0  0  0
 12 13  1  1  0  0  0
 13 16  1  0  0  0  0
 13 17  1  0  0  0  0
M  END
>  <CHROM.0>
-57.10328252,-59.60583131,-59.46910461,-42.94391733,-55.59118521,-61.76248205
-67.50528772,-175.47396116,-168.69769068

>  <CHROM.1>
126.06657920,-54.70041505,-154.46795413,-28.49200317,16.82073125,-15.96656690
0.11121605,-0.39672979,2.05918466

>  <Name>
P133654346

>  <RI>
0

>  <Rbt.Current_Directory>
/home/fstefaniak/projects/zuza/docking/adenine/4TZX

>  <Rbt.Executable>
rbdock ($Id: //depot/dev/client3/rdock/2013.1/src/exe/rbdock.cxx#4 $)

>  <Rbt.Library>
libRbt.so (2013.1, Build901 2013/11/27)

>  <Rbt.Parameter_File>
/home/fstefaniak/progs/rDock//data/scripts/dock_solv.prm

>  <Rbt.Receptor>
4tzx.prm

>  <SCORE>
-37.1092

>  <SCORE.INTER>
-16.8876

>  <SCORE.INTER.CONST>
1

>  <SCORE.INTER.POLAR>
-2.54805

>  <SCORE.INTER.ROT>
3

>  <SCORE.INTER.SOLV>
13.2092

>  <SCORE.INTER.VDW>
-12.768

>  <SCORE.INTER.norm>
-1.20626

>  <SCORE.INTRA>
0.711108

>  <SCORE.INTRA.DIHEDRAL>
1.27131

>  <SCORE.INTRA.DIHEDRAL.0>
1.44444

>  <SCORE.INTRA.POLAR>
0

>  <SCORE.INTRA.POLAR.0>
0

>  <SCORE.INTRA.REPUL>
0

>  <SCORE.INTRA.REPUL.0>
0

>  <SCORE.INTRA.SOLV>
-0.171258

>  <SCORE.INTRA.SOLV.lig_0>
-12.3174

>  <SCORE.INTRA.VDW>
0.161081

>  <SCORE.INTRA.VDW.0>
-1.45316

>  <SCORE.INTRA.norm>
0.0507934

>  <SCORE.RESTR>
0

>  <SCORE.RESTR.CAVITY>
0

>  <SCORE.RESTR.norm>
0

>  <SCORE.SYSTEM>
-20.9327

>  <SCORE.SYSTEM.CONST>
0

>  <SCORE.SYSTEM.DIHEDRAL>
4.48

>  <SCORE.SYSTEM.POLAR>
-3.08367

>  <SCORE.SYSTEM.SOLV>
0.0700902

>  <SCORE.SYSTEM.VDW>
-5.19292

>  <SCORE.SYSTEM.norm>
-1.49519

>  <SCORE.heavy>
14

>  <SCORE.norm>
-2.65066

$$$$
P134346401
 OpenBabel12072022113D
libRbt.so/2013.1/901 2013/11/27
 12 12  0  0  0  0  0  0  0  0999 V2000
  -31.1569   19.3902  -17.7498 C   0  0  0  0  0  0  0  0  0  0  0  0
  -31.1545   18.0685  -17.5299 C   0  0  0  0  0  0  0  0  0  0  0  0
  -29.9426   17.1860  -17.6334 C   0  0  0  0  0  0  0  0  0  0  0  0
  -29.8276   16.2829  -16.4769 N   0  0  0  0  0  0  0  0  0  0  0  0
  -28.6591   15.3744  -16.5930 C   0  0  0  0  0  0  0  0  0  0  0  0
  -27.2816   16.0591  -16.4280 C   0  0  0  0  0  0  0  0  0  0  0  0
  -27.1681   16.8224  -15.1779 N   0  0  0  0  0  0  0  0  0  0  0  0
  -28.3186   17.7283  -15.0100 C   0  0  0  0  0  0  0  0  0  0  0  0
  -29.6964   17.0222  -15.1793 C   0  0  1  0  0  0  0  0  0  0  0  0
  -30.7879   17.9906  -14.9069 C   0  0  0  0  0  0  0  0  0  0  0  0
  -31.6213   18.7717  -14.6934 N   0  0  0  0  0  0  0  0  0  0  0  0
  -26.3008   17.3590  -15.1793 H   0  0  0  0  0  0  0  0  0  0  0  0
  1  2  2  0  0  0  0
  2  3  1  0  0  0  0
  3  4  1  0  0  0  0
  4  5  1  0  0  0  0
  4  9  1  0  0  0  0
  5  6  1  0  0  0  0
  6  7  1  0  0  0  0
  7  8  1  0  0  0  0
  7 12  1  0  0  0  0
  8  9  1  0  0  0  0
  9 10  1  6  0  0  0
 10 11  3  0  0  0  0
M  END
>  <CHROM.0>
-61.17096856,-64.09146039,-65.85906890,-43.10053883,-54.17391441,-62.11377044
-67.68350811,-176.92875308,-168.50396162

>  <CHROM.1>
133.31995172,178.02359165,-29.55252634,17.32469217,-16.13247001,3.12207612
-0.60048625,1.26626355

>  <Name>
P134346401

>  <RI>
0

>  <Rbt.Current_Directory>
/home/fstefaniak/projects/zuza/docking/adenine/4TZX

>  <Rbt.Executable>
rbdock ($Id: //depot/dev/client3/rdock/2013.1/src/exe/rbdock.cxx#4 $)

>  <Rbt.Library>
libRbt.so (2013.1, Build901 2013/11/27)

>  <Rbt.Parameter_File>
/home/fstefaniak/progs/rDock//data/scripts/dock_solv.prm

>  <Rbt.Receptor>
4tzx.prm

>  <SCORE>
-35.1651

>  <SCORE.INTER>
-16.1351

>  <SCORE.INTER.CONST>
1

>  <SCORE.INTER.POLAR>
-1.75003

>  <SCORE.INTER.ROT>
2

>  <SCORE.INTER.SOLV>
10.7106

>  <SCORE.INTER.VDW>
-13.4269

>  <SCORE.INTER.norm>
-1.46683

>  <SCORE.INTRA>
2.09778

>  <SCORE.INTRA.DIHEDRAL>
0.178639

>  <SCORE.INTRA.DIHEDRAL.0>
0.173776

>  <SCORE.INTRA.POLAR>
0

>  <SCORE.INTRA.POLAR.0>
0

>  <SCORE.INTRA.REPUL>
0

>  <SCORE.INTRA.REPUL.0>
0

>  <SCORE.INTRA.SOLV>
0.380104

>  <SCORE.INTRA.SOLV.lig_0>
-11.4098

>  <SCORE.INTRA.VDW>
1.81841

>  <SCORE.INTRA.VDW.0>
-0.148853

>  <SCORE.INTRA.norm>
0.190707

>  <SCORE.RESTR>
0

>  <SCORE.RESTR.CAVITY>
0

>  <SCORE.RESTR.norm>
0

>  <SCORE.SYSTEM>
-21.1277

>  <SCORE.SYSTEM.CONST>
0

>  <SCORE.SYSTEM.DIHEDRAL>
4.71207

>  <SCORE.SYSTEM.POLAR>
-3.05632

>  <SCORE.SYSTEM.SOLV>
0.049639

>  <SCORE.SYSTEM.VDW>
-5.48466

>  <SCORE.SYSTEM.norm>
-1.9207

>  <SCORE.heavy>
11

>  <SCORE.norm>
-3.19682

$$$$
P134346401
 OpenBabel12072022113D
libRbt.so/2013.1/901 2013/11/27
 12 12  0  0  0  0  0  0  0  0999 V2000
  -29.1382   16.4211  -15.6152 C   0  0  0  0  0  0  0  0  0  0  0  0
  -28.9057   15.4078  -16.4606 C   0  0  0  0  0  0  0  0  0  0  0  0
  -28.0758   14.1974  -16.1378 C   0  0  0  0  0  0  0  0  0  0  0  0
  -26.9655   14.0301  -17.0895 N   0  0  0  0  0  0  0  0  0  0  0  0
  -25.6934   14.5886  -16.5659 C   0  0  0  0  0  0  0  0  0  0  0  0
  -25.0596   13.7889  -15.4031 C   0  0  0  0  0  0  0  0  0  0  0  0
  -24.8583   12.3702  -15.7273 N   0  0  0  0  0  0  0  0  0  0  0  0
  -26.0933   11.7754  -16.2688 C   0  0  0  0  0  0  0  0  0  0  0  0
  -26.7171   12.5934  -17.4382 C   0  0  1  0  0  0  0  0  0  0  0  0
  -27.9004   11.8737  -17.9723 C   0  0  0  0  0  0  0  0  0  0  0  0
  -28.8251   11.2907  -18.3662 N   0  0  0  0  0  0  0  0  0  0  0  0
  -24.5663   11.8638  -14.8916 H   0  0  0  0  0  0  0  0  0  0  0  0
  1  2  2  0  0  0  0
  2  3  1  0  0  0  0
  3  4  1  0  0  0  0
  4  5  1  0  0  0  0
  4  9  1  0  0  0  0
  5  6  1  0  0  0  0
  6  7  1  0  0  0  0
  7  8  1  0  0  0  0
  7 12  1  0  0  0  0
  8  9  1  0  0  0  0
  9 10  1  1  0  0  0
 10 11  3  0  0  0  0
M  END
>  <CHROM.0>
-59.59384435,45.32037344,-71.87437644,-42.50065765,-57.41599049,-62.27024782
-168.97045211,-174.62643034,-169.48017893

>  <CHROM.1>
-122.86195153,97.15606645,-27.07532984,13.48937980,-16.60674320,-2.26584283
0.38060746,-2.68323901

>  <Name>
P134346401

>  <RI>
0

>  <Rbt.Current_Directory>
/home/fstefaniak/projects/zuza/docking/adenine/4TZX

>  <Rbt.Executable>
rbdock ($Id: //depot/dev/client3/rdock/2013.1/src/exe/rbdock.cxx#4 $)

>  <Rbt.Library>
libRbt.so (2013.1, Build901 2013/11/27)

>  <Rbt.Parameter_File>
/home/fstefaniak/progs/rDock//data/scripts/dock_solv.prm

>  <Rbt.Receptor>
4tzx.prm

>  <SCORE>
-35.0345

>  <SCORE.INTER>
-15.8118

>  <SCORE.INTER.CONST>
1

>  <SCORE.INTER.POLAR>
-1.75892

>  <SCORE.INTER.ROT>
2

>  <SCORE.INTER.SOLV>
6.75082

>  <SCORE.INTER.VDW>
-11.8618

>  <SCORE.INTER.norm>
-1.43744

>  <SCORE.INTRA>
0.249739

>  <SCORE.INTRA.DIHEDRAL>
1.52033

>  <SCORE.INTRA.DIHEDRAL.0>
0.173776

>  <SCORE.INTRA.POLAR>
0

>  <SCORE.INTRA.POLAR.0>
0

>  <SCORE.INTRA.REPUL>
0

>  <SCORE.INTRA.REPUL.0>
0

>  <SCORE.INTRA.SOLV>
0.00723489

>  <SCORE.INTRA.SOLV.lig_0>
-11.4098

>  <SCORE.INTRA.VDW>
-0.514044

>  <SCORE.INTRA.VDW.0>
-0.148853

>  <SCORE.INTRA.norm>
0.0227036

>  <SCORE.RESTR>
0.124633

>  <SCORE.RESTR.CAVITY>
0.124633

>  <SCORE.RESTR.norm>
0.0113302

>  <SCORE.SYSTEM>
-19.5971

>  <SCORE.SYSTEM.CONST>
0

>  <SCORE.SYSTEM.DIHEDRAL>
6.32109

>  <SCORE.SYSTEM.POLAR>
-3.10478

>  <SCORE.SYSTEM.SOLV>
0.137726

>  <SCORE.SYSTEM.VDW>
-4.8684

>  <SCORE.SYSTEM.norm>
-1.78155

>  <SCORE.heavy>
11

>  <SCORE.norm>
-3.18496

$$$$
P134346401
 OpenBabel12072022113D
libRbt.so/2013.1/901 2013/11/27
 12 12  0  0  0  0  0  0  0  0999 V2000
  -31.1269   19.3877  -17.8059 C   0  0  0  0  0  0  0  0  0  0  0  0
  -31.1181   18.0682  -17.5733 C   0  0  0  0  0  0  0  0  0  0  0  0
  -29.8994   17.1929  -17.6550 C   0  0  0  0  0  0  0  0  0  0  0  0
  -29.7994   16.2909  -16.4962 N   0  0  0  0  0  0  0  0  0  0  0  0
  -28.6371   15.3733  -16.6027 C   0  0  0  0  0  0  0  0  0  0  0  0
  -27.2556   16.0476  -16.4293 C   0  0  0  0  0  0  0  0  0  0  0  0
  -27.1449   16.8122  -15.1798 N   0  0  0  0  0  0  0  0  0  0  0  0
  -28.2894   17.7272  -15.0214 C   0  0  0  0  0  0  0  0  0  0  0  0
  -29.6714   17.0315  -15.1990 C   0  0  1  0  0  0  0  0  0  0  0  0
  -30.7572   18.0088  -14.9358 C   0  0  0  0  0  0  0  0  0  0  0  0
  -31.5860   18.7966  -14.7294 N   0  0  0  0  0  0  0  0  0  0  0  0
  -26.2734   17.3420  -15.1761 H   0  0  0  0  0  0  0  0  0  0  0  0
  1  2  2  0  0  0  0
  2  3  1  0  0  0  0
  3  4  1  0  0  0  0
  4  5  1  0  0  0  0
  4  9  1  0  0  0  0
  5  6  1  0  0  0  0
  6  7  1  0  0  0  0
  7  8  1  0  0  0  0
  7 12  1  0  0  0  0
  8  9  1  0  0  0  0
  9 10  1  6  0  0  0
 10 11  3  0  0  0  0
M  END
>  <CHROM.0>
-60.54261339,-64.41000841,60.66144496,-43.11700815,-177.66585338,-62.22539585
55.41320470,-60.87051329,-169.50844688

>  <CHROM.1>
133.96490372,177.02703860,-29.52264963,17.32802538,-16.15475878,3.13227012
-0.60708055,1.26553945

>  <Name>
P134346401

>  <RI>
0

>  <Rbt.Current_Directory>
/home/fstefaniak/projects/zuza/docking/adenine/4TZX

>  <Rbt.Executable>
rbdock ($Id: //depot/dev/client3/rdock/2013.1/src/exe/rbdock.cxx#4 $)

>  <Rbt.Library>
libRbt.so (2013.1, Build901 2013/11/27)

>  <Rbt.Parameter_File>
/home/fstefaniak/progs/rDock//data/scripts/dock_solv.prm

>  <Rbt.Receptor>
4tzx.prm

>  <SCORE>
-33.3914

>  <SCORE.INTER>
-15.9721

>  <SCORE.INTER.CONST>
1

>  <SCORE.INTER.POLAR>
-1.74019

>  <SCORE.INTER.ROT>
2

>  <SCORE.INTER.SOLV>
10.6886

>  <SCORE.INTER.VDW>
-13.3436

>  <SCORE.INTER.norm>
-1.45201

>  <SCORE.INTRA>
1.91818

>  <SCORE.INTRA.DIHEDRAL>
0.217617

>  <SCORE.INTRA.DIHEDRAL.0>
0.173776

>  <SCORE.INTRA.POLAR>
0

>  <SCORE.INTRA.POLAR.0>
0

>  <SCORE.INTRA.REPUL>
0

>  <SCORE.INTRA.REPUL.0>
0

>  <SCORE.INTRA.SOLV>
0.376115

>  <SCORE.INTRA.SOLV.lig_0>
-11.4098

>  <SCORE.INTRA.VDW>
1.62131

>  <SCORE.INTRA.VDW.0>
-0.148853

>  <SCORE.INTRA.norm>
0.17438

>  <SCORE.RESTR>
0

>  <SCORE.RESTR.CAVITY>
0

>  <SCORE.RESTR.norm>
0

>  <SCORE.SYSTEM>
-19.3376

>  <SCORE.SYSTEM.CONST>
0

>  <SCORE.SYSTEM.DIHEDRAL>
4.1344

>  <SCORE.SYSTEM.POLAR>
-3.00963

>  <SCORE.SYSTEM.SOLV>
-0.113958

>  <SCORE.SYSTEM.VDW>
-4.19975

>  <SCORE.SYSTEM.norm>
-1.75796

>  <SCORE.heavy>
11

>  <SCORE.norm>
-3.03559

$$$$
P134378955
 OpenBabel12072022113D
libRbt.so/2013.1/901 2013/11/27
 14 14  0  0  0  0  0  0  0  0999 V2000
  -30.6103   17.8184  -14.0772 C   0  0  0  0  0  0  0  0  0  0  0  0
  -30.0665   17.1920  -15.3576 C   0  0  1  0  0  0  0  0  0  0  0  0
  -30.5139   18.0391  -16.5659 C   0  0  0  0  0  0  0  0  0  0  0  0
  -31.2894   18.9880  -16.4551 O   0  0  0  0  0  0  0  0  0  0  0  0
  -30.0030   17.6213  -17.7770 N   0  0  0  0  0  0  0  0  0  0  0  0
  -30.2907   18.3456  -18.9892 C   0  0  0  0  0  0  0  0  0  0  0  0
  -28.5917   17.1591  -15.2867 N   0  0  0  0  0  0  0  0  0  0  0  0
  -28.0714   16.0143  -15.9308 N   0  0  0  0  0  0  0  0  0  0  0  0
  -28.7959   14.8839  -16.1778 C   0  0  0  0  0  0  0  0  0  0  0  0
  -27.9679   13.9759  -16.8027 C   0  0  0  0  0  0  0  0  0  0  0  0
  -26.6938   14.5840  -16.9204 C   0  0  0  0  0  0  0  0  0  0  0  0
  -26.7861   15.8404  -16.3577 C   0  0  0  0  0  0  0  0  0  0  0  0
  -29.2360   16.9611  -17.7828 H   0  0  0  0  0  0  0  0  0  0  0  0
  -28.2418   18.0144  -15.7279 H   0  0  0  0  0  0  0  0  0  0  0  0
  2  1  1  1  0  0  0
  2  3  1  0  0  0  0
  2  7  1  0  0  0  0
  3  4  2  0  0  0  0
  3  5  1  0  0  0  0
  5  6  1  0  0  0  0
  5 13  1  0  0  0  0
  7  8  1  0  0  0  0
  7 14  1  0  0  0  0
  8  9  1  0  0  0  0
  8 12  1  0  0  0  0
  9 10  2  0  0  0  0
 10 11  1  0  0  0  0
 11 12  2  0  0  0  0
M  END
>  <CHROM.0>
-61.09709429,-61.91060507,-63.89535480,-43.10025689,-55.30742621,-58.24897786
-66.89747096,-56.16663121,-169.59719786

>  <CHROM.1>
-5.99119218,145.77143876,-20.65221738,-29.19238264,16.78446275,-16.39833843
3.05774449,0.81145422,-1.48429766

>  <Name>
P134378955

>  <RI>
0

>  <Rbt.Current_Directory>
/home/fstefaniak/projects/zuza/docking/adenine/4TZX

>  <Rbt.Executable>
rbdock ($Id: //depot/dev/client3/rdock/2013.1/src/exe/rbdock.cxx#4 $)

>  <Rbt.Library>
libRbt.so (2013.1, Build901 2013/11/27)

>  <Rbt.Parameter_File>
/home/fstefaniak/progs/rDock//data/scripts/dock_solv.prm

>  <Rbt.Receptor>
4tzx.prm

>  <SCORE>
-44.5866

>  <SCORE.INTER>
-26.2184

>  <SCORE.INTER.CONST>
1

>  <SCORE.INTER.POLAR>
-2.08106

>  <SCORE.INTER.ROT>
3

>  <SCORE.INTER.SOLV>
11.9696

>  <SCORE.INTER.VDW>
-20.1319

>  <SCORE.INTER.norm>
-2.18487

>  <SCORE.INTRA>
2.68819

>  <SCORE.INTRA.DIHEDRAL>
-0.195482

>  <SCORE.INTRA.DIHEDRAL.0>
3.19132

>  <SCORE.INTRA.POLAR>
0

>  <SCORE.INTRA.POLAR.0>
0

>  <SCORE.INTRA.REPUL>
0

>  <SCORE.INTRA.REPUL.0>
0

>  <SCORE.INTRA.SOLV>
1.01437

>  <SCORE.INTRA.SOLV.lig_0>
-15.864

>  <SCORE.INTRA.VDW>
2.27874

>  <SCORE.INTRA.VDW.0>
-1.3474

>  <SCORE.INTRA.norm>
0.224016

>  <SCORE.RESTR>
0

>  <SCORE.RESTR.CAVITY>
0

>  <SCORE.RESTR.norm>
0

>  <SCORE.SYSTEM>
-21.0563

>  <SCORE.SYSTEM.CONST>
0

>  <SCORE.SYSTEM.DIHEDRAL>
4.37233

>  <SCORE.SYSTEM.POLAR>
-3.05137

>  <SCORE.SYSTEM.SOLV>
0.200861

>  <SCORE.SYSTEM.VDW>
-5.39071

>  <SCORE.SYSTEM.norm>
-1.75469

>  <SCORE.heavy>
12

>  <SCORE.norm>
-3.71555

$$$$
P134378955
 OpenBabel12072022113D
libRbt.so/2013.1/901 2013/11/27
 14 14  0  0  0  0  0  0  0  0999 V2000
  -30.5261   17.7811  -14.0430 C   0  0  0  0  0  0  0  0  0  0  0  0
  -29.9730   17.2134  -15.3465 C   0  0  1  0  0  0  0  0  0  0  0  0
  -30.4695   18.0745  -16.5254 C   0  0  0  0  0  0  0  0  0  0  0  0
  -31.2544   19.0101  -16.3741 O   0  0  0  0  0  0  0  0  0  0  0  0
  -29.9907   17.6849  -17.7588 N   0  0  0  0  0  0  0  0  0  0  0  0
  -30.3260   18.4256  -18.9487 C   0  0  0  0  0  0  0  0  0  0  0  0
  -28.4973   17.2394  -15.2931 N   0  0  0  0  0  0  0  0  0  0  0  0
  -27.9408   16.0858  -15.8894 N   0  0  0  0  0  0  0  0  0  0  0  0
  -26.6477   15.9984  -16.3182 C   0  0  0  0  0  0  0  0  0  0  0  0
  -26.4614   14.7422  -16.8549 C   0  0  0  0  0  0  0  0  0  0  0  0
  -27.6976   14.0575  -16.7551 C   0  0  0  0  0  0  0  0  0  0  0  0
  -28.5979   14.9213  -16.1664 C   0  0  0  0  0  0  0  0  0  0  0  0
  -29.2151   17.0362  -17.7998 H   0  0  0  0  0  0  0  0  0  0  0  0
  -28.1852   18.0854  -15.7782 H   0  0  0  0  0  0  0  0  0  0  0  0
  2  1  1  1  0  0  0
  2  3  1  0  0  0  0
  2  7  1  0  0  0  0
  3  4  2  0  0  0  0
  3  5  1  0  0  0  0
  5  6  1  0  0  0  0
  5 13  1  0  0  0  0
  7  8  1  0  0  0  0
  7 14  1  0  0  0  0
  8  9  1  0  0  0  0
  8 12  1  0  0  0  0
  9 10  2  0  0  0  0
 10 11  1  0  0  0  0
 11 12  2  0  0  0  0
M  END
>  <CHROM.0>
-60.92707970,-63.46221839,-63.58274502,-42.72746152,-60.49238046,179.06554084
-62.39090023,-61.71294163,-168.87317906

>  <CHROM.1>
-4.00248119,141.46707445,161.01457487,-29.08851050,16.84744924,-16.36326645
3.04708700,0.77447558,-1.48398350

>  <Name>
P134378955

>  <RI>
0

>  <Rbt.Current_Directory>
/home/fstefaniak/projects/zuza/docking/adenine/4TZX

>  <Rbt.Executable>
rbdock ($Id: //depot/dev/client3/rdock/2013.1/src/exe/rbdock.cxx#4 $)

>  <Rbt.Library>
libRbt.so (2013.1, Build901 2013/11/27)

>  <Rbt.Parameter_File>
/home/fstefaniak/progs/rDock//data/scripts/dock_solv.prm

>  <Rbt.Receptor>
4tzx.prm

>  <SCORE>
-44.5503

>  <SCORE.INTER>
-26.2083

>  <SCORE.INTER.CONST>
1

>  <SCORE.INTER.POLAR>
-2.26803

>  <SCORE.INTER.ROT>
3

>  <SCORE.INTER.SOLV>
12.0012

>  <SCORE.INTER.VDW>
-19.5125

>  <SCORE.INTER.norm>
-2.18403

>  <SCORE.INTRA>
2.52212

>  <SCORE.INTRA.DIHEDRAL>
0.122003

>  <SCORE.INTRA.DIHEDRAL.0>
3.19132

>  <SCORE.INTRA.POLAR>
0

>  <SCORE.INTRA.POLAR.0>
0

>  <SCORE.INTRA.REPUL>
0

>  <SCORE.INTRA.REPUL.0>
0

>  <SCORE.INTRA.SOLV>
0.903422

>  <SCORE.INTRA.SOLV.lig_0>
-15.864

>  <SCORE.INTRA.VDW>
2.0094

>  <SCORE.INTRA.VDW.0>
-1.3474

>  <SCORE.INTRA.norm>
0.210176

>  <SCORE.RESTR>
0

>  <SCORE.RESTR.CAVITY>
0

>  <SCORE.RESTR.norm>
0

>  <SCORE.SYSTEM>
-20.8641

>  <SCORE.SYSTEM.CONST>
0

>  <SCORE.SYSTEM.DIHEDRAL>
4.17046

>  <SCORE.SYSTEM.POLAR>
-3.05264

>  <SCORE.SYSTEM.SOLV>
0.0744818

>  <SCORE.SYSTEM.VDW>
-5.1489

>  <SCORE.SYSTEM.norm>
-1.73867

>  <SCORE.heavy>
12

>  <SCORE.norm>
-3.71252

$$$$
P134378955
 OpenBabel12072022113D
libRbt.so/2013.1/901 2013/11/27
 14 14  0  0  0  0  0  0  0  0999 V2000
  -30.5541   17.8233  -14.0102 C   0  0  0  0  0  0  0  0  0  0  0  0
  -30.0384   17.2080  -15.3074 C   0  0  1  0  0  0  0  0  0  0  0  0
  -30.5125   18.0651  -16.4984 C   0  0  0  0  0  0  0  0  0  0  0  0
  -31.2762   19.0202  -16.3610 O   0  0  0  0  0  0  0  0  0  0  0  0
  -30.0399   17.6492  -17.7256 N   0  0  0  0  0  0  0  0  0  0  0  0
  -30.3555   18.3821  -18.9256 C   0  0  0  0  0  0  0  0  0  0  0  0
  -28.5625   17.1752  -15.2693 N   0  0  0  0  0  0  0  0  0  0  0  0
  -28.0563   16.0335  -15.9300 N   0  0  0  0  0  0  0  0  0  0  0  0
  -28.7923   14.9127  -16.1858 C   0  0  0  0  0  0  0  0  0  0  0  0
  -27.9762   14.0048  -16.8264 C   0  0  0  0  0  0  0  0  0  0  0  0
  -26.6975   14.6030  -16.9447 C   0  0  0  0  0  0  0  0  0  0  0  0
  -26.7752   15.8533  -16.3668 C   0  0  0  0  0  0  0  0  0  0  0  0
  -29.2792   16.9824  -17.7564 H   0  0  0  0  0  0  0  0  0  0  0  0
  -28.2225   18.0327  -15.7140 H   0  0  0  0  0  0  0  0  0  0  0  0
  2  1  1  1  0  0  0
  2  3  1  0  0  0  0
  2  7  1  0  0  0  0
  3  4  2  0  0  0  0
  3  5  1  0  0  0  0
  5  6  1  0  0  0  0
  5 13  1  0  0  0  0
  7  8  1  0  0  0  0
  7 14  1  0  0  0  0
  8  9  1  0  0  0  0
  8 12  1  0  0  0  0
  9 10  2  0  0  0  0
 10 11  1  0  0  0  0
 11 12  2  0  0  0  0
M  END
>  <CHROM.0>
-59.42976906,-62.50063079,-72.07748171,-42.41540966,-174.50466325,-63.20021416
-169.25738353,-59.12123792,-168.78251245

>  <CHROM.1>
-5.32166975,145.55117830,-19.52224765,-29.18894383,16.80690211,-16.36781309
3.09485453,0.81330585,-1.51075808

>  <Name>
P134378955

>  <RI>
0

>  <Rbt.Current_Directory>
/home/fstefaniak/projects/zuza/docking/adenine/4TZX

>  <Rbt.Executable>
rbdock ($Id: //depot/dev/client3/rdock/2013.1/src/exe/rbdock.cxx#4 $)

>  <Rbt.Library>
libRbt.so (2013.1, Build901 2013/11/27)

>  <Rbt.Parameter_File>
/home/fstefaniak/progs/rDock//data/scripts/dock_solv.prm

>  <Rbt.Receptor>
4tzx.prm

>  <SCORE>
-44.2159

>  <SCORE.INTER>
-26.2308

>  <SCORE.INTER.CONST>
1

>  <SCORE.INTER.POLAR>
-2.21809

>  <SCORE.INTER.ROT>
3

>  <SCORE.INTER.SOLV>
12.0057

>  <SCORE.INTER.VDW>
-19.6954

>  <SCORE.INTER.norm>
-2.1859

>  <SCORE.INTRA>
2.73149

>  <SCORE.INTRA.DIHEDRAL>
-0.187932

>  <SCORE.INTRA.DIHEDRAL.0>
3.19132

>  <SCORE.INTRA.POLAR>
0

>  <SCORE.INTRA.POLAR.0>
0

>  <SCORE.INTRA.REPUL>
0

>  <SCORE.INTRA.REPUL.0>
0

>  <SCORE.INTRA.SOLV>
1.00572

>  <SCORE.INTRA.SOLV.lig_0>
-15.864

>  <SCORE.INTRA.VDW>
2.32259

>  <SCORE.INTRA.VDW.0>
-1.3474

>  <SCORE.INTRA.norm>
0.227624

>  <SCORE.RESTR>
0

>  <SCORE.RESTR.CAVITY>
0

>  <SCORE.RESTR.norm>
0

>  <SCORE.SYSTEM>
-20.7167

>  <SCORE.SYSTEM.CONST>
0

>  <SCORE.SYSTEM.DIHEDRAL>
5.43492

>  <SCORE.SYSTEM.POLAR>
-3.04263

>  <SCORE.SYSTEM.SOLV>
-0.0290409

>  <SCORE.SYSTEM.VDW>
-5.47098

>  <SCORE.SYSTEM.norm>
-1.72639

>  <SCORE.heavy>
12

>  <SCORE.norm>
-3.68466

$$$$
P134486215
 OpenBabel12072022113D
libRbt.so/2013.1/901 2013/11/27
  9  8  0  0  0  0  0  0  0  0999 V2000
  -29.1969   16.5526  -16.2268 C   0  0  0  0  0  0  0  0  0  0  0  0
  -30.4689   17.2727  -16.6753 C   0  0  1  0  0  0  0  0  0  0  0  0
  -31.1286   17.9216  -15.4693 C   0  0  0  0  0  0  0  0  0  0  0  0
  -31.6759   18.4600  -14.4690 N   0  0  0  0  0  0  0  0  0  0  0  0
  -30.1841   18.3434  -17.7366 C   0  0  2  0  0  0  0  0  0  0  0  0
  -31.3533   19.3143  -17.8788 C   0  0  0  0  0  0  0  0  0  0  0  0
  -32.5111   18.9266  -18.0255 O   0  0  0  0  0  0  0  0  0  0  0  0
  -29.9411   17.7170  -18.9990 O   0  0  0  0  0  0  0  0  0  0  0  0
  -30.7994   17.3532  -19.3042 H   0  0  0  0  0  0  0  0  0  0  0  0
  2  1  1  1  0  0  0
  2  3  1  0  0  0  0
  3  4  3  0  0  0  0
  5  6  1  6  0  0  0
  5  8  1  0  0  0  0
  5  2  1  0  0  0  0
  6  7  2  0  0  0  0
  8  9  1  0  0  0  0
M  END
>  <CHROM.0>
-61.19606847,-171.04936662,-65.43159088,53.15525884,-54.56768549,-62.14250156
-67.98999389,-58.81324404,-169.35740510

>  <CHROM.1>
-49.96872450,70.35459859,-163.43758879,-30.80551061,18.04861062,-17.01817329
-1.60060084,0.65246119,-1.38730663

>  <Name>
P134486215

>  <RI>
0

>  <Rbt.Current_Directory>
/home/fstefaniak/projects/zuza/docking/adenine/4TZX

>  <Rbt.Executable>
rbdock ($Id: //depot/dev/client3/rdock/2013.1/src/exe/rbdock.cxx#4 $)

>  <Rbt.Library>
libRbt.so (2013.1, Build901 2013/11/27)

>  <Rbt.Parameter_File>
/home/fstefaniak/progs/rDock//data/scripts/dock_solv.prm

>  <Rbt.Receptor>
4tzx.prm

>  <SCORE>
-46.7173

>  <SCORE.INTER>
-27.803

>  <SCORE.INTER.CONST>
1

>  <SCORE.INTER.POLAR>
-3.46645

>  <SCORE.INTER.ROT>
2

>  <SCORE.INTER.SOLV>
10.5406

>  <SCORE.INTER.VDW>
-15.4274

>  <SCORE.INTER.norm>
-3.47538

>  <SCORE.INTRA>
-1.03969

>  <SCORE.INTRA.DIHEDRAL>
-0.948349

>  <SCORE.INTRA.DIHEDRAL.0>
5.3869

>  <SCORE.INTRA.POLAR>
0

>  <SCORE.INTRA.POLAR.0>
0

>  <SCORE.INTRA.REPUL>
0

>  <SCORE.INTRA.REPUL.0>
0

>  <SCORE.INTRA.SOLV>
0.191945

>  <SCORE.INTRA.SOLV.lig_0>
-11.8403

>  <SCORE.INTRA.VDW>
-0.661492

>  <SCORE.INTRA.VDW.0>
1.05287

>  <SCORE.INTRA.norm>
-0.129962

>  <SCORE.RESTR>
0

>  <SCORE.RESTR.CAVITY>
0

>  <SCORE.RESTR.norm>
0

>  <SCORE.SYSTEM>
-17.8746

>  <SCORE.SYSTEM.CONST>
0

>  <SCORE.SYSTEM.DIHEDRAL>
3.81284

>  <SCORE.SYSTEM.POLAR>
-2.4678

>  <SCORE.SYSTEM.SOLV>
0.0852372

>  <SCORE.SYSTEM.VDW>
-4.98977

>  <SCORE.SYSTEM.norm>
-2.23433

>  <SCORE.heavy>
8

>  <SCORE.norm>
-5.83967

$$$$
P134486215
 OpenBabel12072022113D
libRbt.so/2013.1/901 2013/11/27
  9  8  0  0  0  0  0  0  0  0999 V2000
  -29.2750   16.4492  -16.1153 C   0  0  0  0  0  0  0  0  0  0  0  0
  -30.4659   17.2422  -16.6543 C   0  0  1  0  0  0  0  0  0  0  0  0
  -31.1508   17.9613  -15.5035 C   0  0  0  0  0  0  0  0  0  0  0  0
  -31.7189   18.5579  -14.5489 N   0  0  0  0  0  0  0  0  0  0  0  0
  -30.0460   18.2667  -17.7164 C   0  0  2  0  0  0  0  0  0  0  0  0
  -31.0985   19.3592  -17.8858 C   0  0  0  0  0  0  0  0  0  0  0  0
  -30.8029   20.5524  -17.9198 O   0  0  0  0  0  0  0  0  0  0  0  0
  -29.8510   17.6076  -18.9703 O   0  0  0  0  0  0  0  0  0  0  0  0
  -30.7324   17.2936  -19.2650 H   0  0  0  0  0  0  0  0  0  0  0  0
  2  1  1  1  0  0  0
  2  3  1  0  0  0  0
  3  4  3  0  0  0  0
  5  6  1  6  0  0  0
  5  8  1  0  0  0  0
  5  2  1  0  0  0  0
  6  7  2  0  0  0  0
  8  9  1  0  0  0  0
M  END
>  <CHROM.0>
-61.10809055,-175.32948897,-67.45426054,-42.93845180,-59.13626391,-62.07591762
-65.49505656,-61.43909812,-169.36899639

>  <CHROM.1>
133.06824523,67.24573165,-159.89781242,-30.52304779,18.25799975,-16.99359203
-1.71940722,1.01793480,-0.95600314

>  <Name>
P134486215

>  <RI>
0

>  <Rbt.Current_Directory>
/home/fstefaniak/projects/zuza/docking/adenine/4TZX

>  <Rbt.Executable>
rbdock ($Id: //depot/dev/client3/rdock/2013.1/src/exe/rbdock.cxx#4 $)

>  <Rbt.Library>
libRbt.so (2013.1, Build901 2013/11/27)

>  <Rbt.Parameter_File>
/home/fstefaniak/progs/rDock//data/scripts/dock_solv.prm

>  <Rbt.Receptor>
4tzx.prm

>  <SCORE>
-46.6301

>  <SCORE.INTER>
-23.3493

>  <SCORE.INTER.CONST>
1

>  <SCORE.INTER.POLAR>
-2.72502

>  <SCORE.INTER.ROT>
2

>  <SCORE.INTER.SOLV>
11.7076

>  <SCORE.INTER.VDW>
-15.3187

>  <SCORE.INTER.norm>
-2.91867

>  <SCORE.INTRA>
-2.22665

>  <SCORE.INTRA.DIHEDRAL>
-3.06973

>  <SCORE.INTRA.DIHEDRAL.0>
5.3869

>  <SCORE.INTRA.POLAR>
0

>  <SCORE.INTRA.POLAR.0>
0

>  <SCORE.INTRA.REPUL>
0

>  <SCORE.INTRA.REPUL.0>
0

>  <SCORE.INTRA.SOLV>
-0.172181

>  <SCORE.INTRA.SOLV.lig_0>
-11.8403

>  <SCORE.INTRA.VDW>
-0.605697

>  <SCORE.INTRA.VDW.0>
1.05287

>  <SCORE.INTRA.norm>
-0.278331

>  <SCORE.RESTR>
0

>  <SCORE.RESTR.CAVITY>
0

>  <SCORE.RESTR.norm>
0

>  <SCORE.SYSTEM>
-21.0541

>  <SCORE.SYSTEM.CONST>
0

>  <SCORE.SYSTEM.DIHEDRAL>
4.45974

>  <SCORE.SYSTEM.POLAR>
-3.03433

>  <SCORE.SYSTEM.SOLV>
0.151214

>  <SCORE.SYSTEM.VDW>
-5.45865

>  <SCORE.SYSTEM.norm>
-2.63177

>  <SCORE.heavy>
8

>  <SCORE.norm>
-5.82876

$$$$
P134486215
 OpenBabel12072022113D
libRbt.so/2013.1/901 2013/11/27
  9  8  0  0  0  0  0  0  0  0999 V2000
  -30.0727   17.7339  -17.9767 C   0  0  0  0  0  0  0  0  0  0  0  0
  -30.2164   17.3453  -16.5050 C   0  0  1  0  0  0  0  0  0  0  0  0
  -28.8373   17.0998  -15.9148 C   0  0  0  0  0  0  0  0  0  0  0  0
  -27.6933   16.8962  -15.4253 N   0  0  0  0  0  0  0  0  0  0  0  0
  -30.9338   18.4278  -15.6880 C   0  0  2  0  0  0  0  0  0  0  0  0
  -31.0094   18.0543  -14.2099 C   0  0  0  0  0  0  0  0  0  0  0  0
  -30.5223   17.0131  -13.7728 O   0  0  0  0  0  0  0  0  0  0  0  0
  -32.2596   18.6114  -16.1916 O   0  0  0  0  0  0  0  0  0  0  0  0
  -32.7200   17.7504  -16.0968 H   0  0  0  0  0  0  0  0  0  0  0  0
  2  1  1  6  0  0  0
  2  3  1  0  0  0  0
  3  4  3  0  0  0  0
  5  6  1  1  0  0  0
  5  8  1  0  0  0  0
  5  2  1  0  0  0  0
  6  7  2  0  0  0  0
  8  9  1  0  0  0  0
M  END
>  <CHROM.0>
-59.50546153,57.23949319,-60.35243759,-43.45175267,-59.27450249,-62.87188717
-66.26887468,-60.77024318,-168.70158271

>  <CHROM.1>
1.03976689,60.39878128,-177.26618139,-30.26685401,17.65716437,-15.71162260
-0.07926247,0.37854277,-1.43508212

>  <Name>
P134486215

>  <RI>
0

>  <Rbt.Current_Directory>
/home/fstefaniak/projects/zuza/docking/adenine/4TZX

>  <Rbt.Executable>
rbdock ($Id: //depot/dev/client3/rdock/2013.1/src/exe/rbdock.cxx#4 $)

>  <Rbt.Library>
libRbt.so (2013.1, Build901 2013/11/27)

>  <Rbt.Parameter_File>
/home/fstefaniak/progs/rDock//data/scripts/dock_solv.prm

>  <Rbt.Receptor>
4tzx.prm

>  <SCORE>
-46.4928

>  <SCORE.INTER>
-23.5891

>  <SCORE.INTER.CONST>
1

>  <SCORE.INTER.POLAR>
-3.42031

>  <SCORE.INTER.ROT>
2

>  <SCORE.INTER.SOLV>
9.12681

>  <SCORE.INTER.VDW>
-12.3006

>  <SCORE.INTER.norm>
-2.94863

>  <SCORE.INTRA>
-2.63386

>  <SCORE.INTRA.DIHEDRAL>
-4.78682

>  <SCORE.INTRA.DIHEDRAL.0>
5.3869

>  <SCORE.INTRA.POLAR>
0

>  <SCORE.INTRA.POLAR.0>
0

>  <SCORE.INTRA.REPUL>
0

>  <SCORE.INTRA.REPUL.0>
0

>  <SCORE.INTRA.SOLV>
0.200691

>  <SCORE.INTRA.SOLV.lig_0>
-11.8403

>  <SCORE.INTRA.VDW>
-0.340791

>  <SCORE.INTRA.VDW.0>
1.05287

>  <SCORE.INTRA.norm>
-0.329232

>  <SCORE.RESTR>
0

>  <SCORE.RESTR.CAVITY>
0

>  <SCORE.RESTR.norm>
0

>  <SCORE.SYSTEM>
-20.2699

>  <SCORE.SYSTEM.CONST>
0

>  <SCORE.SYSTEM.DIHEDRAL>
4.17816

>  <SCORE.SYSTEM.POLAR>
-3.05256

>  <SCORE.SYSTEM.SOLV>
0.263791

>  <SCORE.SYSTEM.VDW>
-4.8187

>  <SCORE.SYSTEM.norm>
-2.53373

>  <SCORE.heavy>
8

>  <SCORE.norm>
-5.8116

$$$$
P134619762
 OpenBabel12072022113D
libRbt.so/2013.1/901 2013/11/27
 13 13  0  0  0  0  0  0  0  0999 V2000
  -31.2141   17.8623  -15.5924 C   0  0  0  0  0  0  0  0  0  0  0  0
  -30.0749   17.4296  -16.3843 N   0  0  0  0  0  0  0  0  0  0  0  0
  -30.1126   17.8061  -17.7912 C   0  0  0  0  0  0  0  0  0  0  0  0
  -29.2941   16.4036  -15.8640 C   0  0  0  0  0  0  0  0  0  0  0  0
  -29.5561   15.8381  -14.8043 O   0  0  0  0  0  0  0  0  0  0  0  0
  -28.1982   16.0658  -16.6232 N   0  0  0  0  0  0  0  0  0  0  0  0
  -26.8670   16.1745  -16.1022 C   0  0  2  0  0  0  0  0  0  0  0  0
  -25.6719   16.0729  -17.0101 C   0  0  0  0  0  0  0  0  0  0  0  0
  -25.9551   14.9710  -16.0347 C   0  0  1  0  0  0  0  0  0  0  0  0
  -25.0740   14.7775  -14.8844 N   0  0  0  0  0  0  0  0  0  0  0  0
  -28.3070   16.1899  -17.6180 H   0  0  0  0  0  0  0  0  0  0  0  0
  -24.9400   15.6462  -14.3668 H   0  0  0  0  0  0  0  0  0  0  0  0
  -24.1442   14.4890  -15.1883 H   0  0  0  0  0  0  0  0  0  0  0  0
  1  2  1  0  0  0  0
  2  3  1  0  0  0  0
  2  4  1  0  0  0  0
  4  5  2  0  0  0  0
  4  6  1  0  0  0  0
  6 11  1  0  0  0  0
  7  8  1  0  0  0  0
  7  9  1  0  0  0  0
  7  6  1  6  0  0  0
  8  9  1  0  0  0  0
  9 10  1  1  0  0  0
 10 12  1  0  0  0  0
 10 13  1  0  0  0  0
M  END
>  <CHROM.0>
-63.74511375,-58.36668223,-71.80695638,-42.25610429,-58.99028256,-60.68474195
-169.14737854,-59.54527182,-169.00970939

>  <CHROM.1>
119.55388559,-167.57913742,-18.86500799,-28.21434602,16.34529888,-16.09525613
2.87198574,0.34069612,-1.10111957

>  <Name>
P134619762

>  <RI>
0

>  <Rbt.Current_Directory>
/home/fstefaniak/projects/zuza/docking/adenine/4TZX

>  <Rbt.Executable>
rbdock ($Id: //depot/dev/client3/rdock/2013.1/src/exe/rbdock.cxx#4 $)

>  <Rbt.Library>
libRbt.so (2013.1, Build901 2013/11/27)

>  <Rbt.Parameter_File>
/home/fstefaniak/progs/rDock//data/scripts/dock_solv.prm

>  <Rbt.Receptor>
4tzx.prm

>  <SCORE>
-50.3182

>  <SCORE.INTER>
-30.0956

>  <SCORE.INTER.CONST>
1

>  <SCORE.INTER.POLAR>
-4.16346

>  <SCORE.INTER.ROT>
3

>  <SCORE.INTER.SOLV>
11.3234

>  <SCORE.INTER.VDW>
-15.56

>  <SCORE.INTER.norm>
-3.00956

>  <SCORE.INTRA>
0.268953

>  <SCORE.INTRA.DIHEDRAL>
-0.245033

>  <SCORE.INTRA.DIHEDRAL.0>
2.97979

>  <SCORE.INTRA.POLAR>
0

>  <SCORE.INTRA.POLAR.0>
0

>  <SCORE.INTRA.REPUL>
0

>  <SCORE.INTRA.REPUL.0>
0

>  <SCORE.INTRA.SOLV>
-0.0860021

>  <SCORE.INTRA.SOLV.lig_0>
-14.5147

>  <SCORE.INTRA.VDW>
0.43447

>  <SCORE.INTRA.VDW.0>
-0.216234

>  <SCORE.INTRA.norm>
0.0268953

>  <SCORE.RESTR>
0

>  <SCORE.RESTR.CAVITY>
0

>  <SCORE.RESTR.norm>
0

>  <SCORE.SYSTEM>
-20.4916

>  <SCORE.SYSTEM.CONST>
0

>  <SCORE.SYSTEM.DIHEDRAL>
5.28609

>  <SCORE.SYSTEM.POLAR>
-3.02507

>  <SCORE.SYSTEM.SOLV>
0.155932

>  <SCORE.SYSTEM.VDW>
-5.39149

>  <SCORE.SYSTEM.norm>
-2.04916

>  <SCORE.heavy>
10

>  <SCORE.norm>
-5.03182

$$$$
P134619762
 OpenBabel12072022113D
libRbt.so/2013.1/901 2013/11/27
 13 13  0  0  0  0  0  0  0  0999 V2000
  -25.6018   13.6310  -16.0941 C   0  0  0  0  0  0  0  0  0  0  0  0
  -26.9691   13.9618  -16.4592 N   0  0  0  0  0  0  0  0  0  0  0  0
  -27.6412   12.9898  -17.3112 C   0  0  0  0  0  0  0  0  0  0  0  0
  -27.3597   15.2886  -16.3177 C   0  0  0  0  0  0  0  0  0  0  0  0
  -26.5921   16.1734  -15.9445 O   0  0  0  0  0  0  0  0  0  0  0  0
  -28.6762   15.5421  -16.6245 N   0  0  0  0  0  0  0  0  0  0  0  0
  -29.5836   16.0642  -15.6451 C   0  0  2  0  0  0  0  0  0  0  0  0
  -30.3578   17.3275  -15.9056 C   0  0  0  0  0  0  0  0  0  0  0  0
  -29.2640   17.3287  -14.8812 C   0  0  1  0  0  0  0  0  0  0  0  0
  -29.6001   17.4377  -13.4626 N   0  0  0  0  0  0  0  0  0  0  0  0
  -29.0729   14.9563  -17.3430 H   0  0  0  0  0  0  0  0  0  0  0  0
  -29.6619   18.4123  -13.1678 H   0  0  0  0  0  0  0  0  0  0  0  0
  -28.8698   17.0190  -12.8870 H   0  0  0  0  0  0  0  0  0  0  0  0
  1  2  1  0  0  0  0
  2  3  1  0  0  0  0
  2  4  1  0  0  0  0
  4  5  2  0  0  0  0
  4  6  1  0  0  0  0
  6 11  1  0  0  0  0
  7  8  1  0  0  0  0
  7  9  1  0  0  0  0
  7  6  1  6  0  0  0
  8  9  1  0  0  0  0
  9 10  1  1  0  0  0
 10 12  1  0  0  0  0
 10 13  1  0  0  0  0
M  END
>  <CHROM.0>
-60.13131501,-66.29582259,-65.74763243,-42.07566994,-60.63822104,-63.35887130
-69.05758488,-172.32426682,-168.20139978

>  <CHROM.1>
118.98886870,124.85876531,-158.55978392,-28.13656168,15.56484732,-15.85017781
-0.87261041,-0.31505460,0.74900078

>  <Name>
P134619762

>  <RI>
0

>  <Rbt.Current_Directory>
/home/fstefaniak/projects/zuza/docking/adenine/4TZX

>  <Rbt.Executable>
rbdock ($Id: //depot/dev/client3/rdock/2013.1/src/exe/rbdock.cxx#4 $)

>  <Rbt.Library>
libRbt.so (2013.1, Build901 2013/11/27)

>  <Rbt.Parameter_File>
/home/fstefaniak/progs/rDock//data/scripts/dock_solv.prm

>  <Rbt.Receptor>
4tzx.prm

>  <SCORE>
-45.2894

>  <SCORE.INTER>
-24.4323

>  <SCORE.INTER.CONST>
1

>  <SCORE.INTER.POLAR>
-2.91773

>  <SCORE.INTER.ROT>
3

>  <SCORE.INTER.SOLV>
10.6165

>  <SCORE.INTER.VDW>
-15.7013

>  <SCORE.INTER.norm>
-2.44323

>  <SCORE.INTRA>
0.19699

>  <SCORE.INTRA.DIHEDRAL>
-0.0904308

>  <SCORE.INTRA.DIHEDRAL.0>
2.97979

>  <SCORE.INTRA.POLAR>
0

>  <SCORE.INTRA.POLAR.0>
0

>  <SCORE.INTRA.REPUL>
0

>  <SCORE.INTRA.REPUL.0>
0

>  <SCORE.INTRA.SOLV>
0.257245

>  <SCORE.INTRA.SOLV.lig_0>
-14.5147

>  <SCORE.INTRA.VDW>
0.113583

>  <SCORE.INTRA.VDW.0>
-0.216234

>  <SCORE.INTRA.norm>
0.019699

>  <SCORE.RESTR>
0

>  <SCORE.RESTR.CAVITY>
0

>  <SCORE.RESTR.norm>
0

>  <SCORE.SYSTEM>
-21.0541

>  <SCORE.SYSTEM.CONST>
0

>  <SCORE.SYSTEM.DIHEDRAL>
5.19016

>  <SCORE.SYSTEM.POLAR>
-3.06208

>  <SCORE.SYSTEM.SOLV>
0.0375676

>  <SCORE.SYSTEM.VDW>
-5.57172

>  <SCORE.SYSTEM.norm>
-2.10541

>  <SCORE.heavy>
10

>  <SCORE.norm>
-4.52894

$$$$
P134619762
 OpenBabel12072022113D
libRbt.so/2013.1/901 2013/11/27
 13 13  0  0  0  0  0  0  0  0999 V2000
  -25.4248   13.5445  -16.2795 C   0  0  0  0  0  0  0  0  0  0  0  0
  -26.2952   14.7035  -16.3858 N   0  0  0  0  0  0  0  0  0  0  0  0
  -25.6429   15.9936  -16.2053 C   0  0  0  0  0  0  0  0  0  0  0  0
  -27.6613   14.4852  -16.2474 C   0  0  0  0  0  0  0  0  0  0  0  0
  -28.1383   13.3790  -16.0019 O   0  0  0  0  0  0  0  0  0  0  0  0
  -28.4470   15.6025  -16.4088 N   0  0  0  0  0  0  0  0  0  0  0  0
  -29.4046   15.9914  -15.4152 C   0  0  2  0  0  0  0  0  0  0  0  0
  -30.4751   17.0009  -15.7281 C   0  0  0  0  0  0  0  0  0  0  0  0
  -29.3651   17.3670  -14.7903 C   0  0  1  0  0  0  0  0  0  0  0  0
  -29.6468   17.5378  -13.3659 N   0  0  0  0  0  0  0  0  0  0  0  0
  -28.6603   15.8462  -17.3637 H   0  0  0  0  0  0  0  0  0  0  0  0
  -29.6915   18.5243  -13.1102 H   0  0  0  0  0  0  0  0  0  0  0  0
  -28.8979   17.1380  -12.8009 H   0  0  0  0  0  0  0  0  0  0  0  0
  1  2  1  0  0  0  0
  2  3  1  0  0  0  0
  2  4  1  0  0  0  0
  4  5  2  0  0  0  0
  4  6  1  0  0  0  0
  6 11  1  0  0  0  0
  7  8  1  0  0  0  0
  7  9  1  0  0  0  0
  7  6  1  6  0  0  0
  8  9  1  0  0  0  0
  9 10  1  1  0  0  0
 10 12  1  0  0  0  0
 10 13  1  0  0  0  0
M  END
>  <CHROM.0>
-63.57615927,39.42673706,61.01773002,50.00730614,-60.03401590,-64.24743058
54.88928089,-56.53610172,-169.10202038

>  <CHROM.1>
-126.72893634,-165.32588047,-173.30788853,-28.02436806,15.55254656,-15.66887960
-0.76073052,0.05036613,0.46880594

>  <Name>
P134619762

>  <RI>
0

>  <Rbt.Current_Directory>
/home/fstefaniak/projects/zuza/docking/adenine/4TZX

>  <Rbt.Executable>
rbdock ($Id: //depot/dev/client3/rdock/2013.1/src/exe/rbdock.cxx#4 $)

>  <Rbt.Library>
libRbt.so (2013.1, Build901 2013/11/27)

>  <Rbt.Parameter_File>
/home/fstefaniak/progs/rDock//data/scripts/dock_solv.prm

>  <Rbt.Receptor>
4tzx.prm

>  <SCORE>
-44.8543

>  <SCORE.INTER>
-28.9685

>  <SCORE.INTER.CONST>
1

>  <SCORE.INTER.POLAR>
-3.76326

>  <SCORE.INTER.ROT>
3

>  <SCORE.INTER.SOLV>
10.6929

>  <SCORE.INTER.VDW>
-15.9324

>  <SCORE.INTER.norm>
-2.89685

>  <SCORE.INTRA>
-0.972464

>  <SCORE.INTRA.DIHEDRAL>
0.160929

>  <SCORE.INTRA.DIHEDRAL.0>
2.97979

>  <SCORE.INTRA.POLAR>
0

>  <SCORE.INTRA.POLAR.0>
0

>  <SCORE.INTRA.REPUL>
0

>  <SCORE.INTRA.REPUL.0>
0

>  <SCORE.INTRA.SOLV>
-0.121288

>  <SCORE.INTRA.SOLV.lig_0>
-14.5147

>  <SCORE.INTRA.VDW>
-0.992285

>  <SCORE.INTRA.VDW.0>
-0.216234

>  <SCORE.INTRA.norm>
-0.0972464

>  <SCORE.RESTR>
0

>  <SCORE.RESTR.CAVITY>
0

>  <SCORE.RESTR.norm>
0

>  <SCORE.SYSTEM>
-14.9134

>  <SCORE.SYSTEM.CONST>
0

>  <SCORE.SYSTEM.DIHEDRAL>
5.28728

>  <SCORE.SYSTEM.POLAR>
-2.55256

>  <SCORE.SYSTEM.SOLV>
0.136917

>  <SCORE.SYSTEM.VDW>
-3.24178

>  <SCORE.SYSTEM.norm>
-1.49134

>  <SCORE.heavy>
10

>  <SCORE.norm>
-4.48543

$$$$
P134782587
 OpenBabel12072022113D
libRbt.so/2013.1/901 2013/11/27
 18 18  0  0  0  0  0  0  0  0999 V2000
  -30.0244   17.7038  -16.5389 C   0  0  0  0  0  0  0  0  0  0  0  0
  -31.1354   18.1253  -15.5703 C   0  0  0  0  0  0  0  0  0  0  0  0
  -30.7600   17.4864  -14.2445 C   0  0  1  0  0  0  0  0  0  0  0  0
  -29.2409   17.5158  -14.2518 C   0  0  0  0  0  0  0  0  0  0  0  0
  -28.8980   17.0912  -15.6871 C   0  0  1  0  0  0  0  0  0  0  0  0
  -28.8818   15.5695  -15.8248 C   0  0  0  0  0  0  0  0  0  0  0  0
  -29.9372   14.9305  -15.8261 O   0  0  0  0  0  0  0  0  0  0  0  0
  -27.6920   14.9134  -16.0158 N   0  0  0  0  0  0  0  0  0  0  0  0
  -26.4467   15.4370  -16.2539 C   0  0  0  0  0  0  0  0  0  0  0  0
  -26.1559   16.6230  -16.2852 O   0  0  0  0  0  0  0  0  0  0  0  0
  -25.5088   14.4818  -16.4951 N   0  0  0  0  0  0  0  0  0  0  0  0
  -31.3000   18.2592  -13.1103 N   0  3  0  0  0  0  0  0  0  0  0  0
  -32.3019   18.4665  -13.2161 H   0  0  0  0  0  0  0  0  0  0  0  0
  -31.1801   17.7496  -12.2249 H   0  0  0  0  0  0  0  0  0  0  0  0
  -30.8054   19.1559  -13.0106 H   0  0  0  0  0  0  0  0  0  0  0  0
  -27.7915   13.9195  -16.1558 H   0  0  0  0  0  0  0  0  0  0  0  0
  -24.5364   14.6675  -16.2906 H   0  0  0  0  0  0  0  0  0  0  0  0
  -25.6571   13.9680  -17.3584 H   0  0  0  0  0  0  0  0  0  0  0  0
  1  2  1  0  0  0  0
  1  5  1  0  0  0  0
  2  3  1  0  0  0  0
  3  4  1  0  0  0  0
  3 12  1  1  0  0  0
  4  5  1  0  0  0  0
  5  6  1  1  0  0  0
  6  7  2  0  0  0  0
  6  8  1  0  0  0  0
  8  9  1  0  0  0  0
  8 16  1  0  0  0  0
  9 10  2  0  0  0  0
  9 11  1  0  0  0  0
 11 17  1  0  0  0  0
 11 18  1  0  0  0  0
 12 13  1  0  0  0  0
 12 14  1  0  0  0  0
 12 15  1  0  0  0  0
M  CHG  1  12   1
M  END
>  <CHROM.0>
-57.20560778,-59.61072877,-66.77760691,-41.86673254,-172.45537724,-174.00176424
-67.39017554,-177.64576879,-168.70043830

>  <CHROM.1>
50.03780128,-41.90832632,-153.44768126,-28.82547097,16.50261937,-15.48714378
2.51318608,0.14008539,0.43980437

>  <Name>
P134782587

>  <RI>
0

>  <Rbt.Current_Directory>
/home/fstefaniak/projects/zuza/docking/adenine/4TZX

>  <Rbt.Executable>
rbdock ($Id: //depot/dev/client3/rdock/2013.1/src/exe/rbdock.cxx#4 $)

>  <Rbt.Library>
libRbt.so (2013.1, Build901 2013/11/27)

>  <Rbt.Parameter_File>
/home/fstefaniak/progs/rDock//data/scripts/dock_solv.prm

>  <Rbt.Receptor>
4tzx.prm

>  <SCORE>
-52.3774

>  <SCORE.INTER>
-32.1195

>  <SCORE.INTER.CONST>
1

>  <SCORE.INTER.POLAR>
-4.7634

>  <SCORE.INTER.ROT>
2

>  <SCORE.INTER.SOLV>
22.1789

>  <SCORE.INTER.VDW>
-17.8613

>  <SCORE.INTER.norm>
-2.67662

>  <SCORE.INTRA>
0.695367

>  <SCORE.INTRA.DIHEDRAL>
2.35913

>  <SCORE.INTRA.DIHEDRAL.0>
1.79452

>  <SCORE.INTRA.POLAR>
0

>  <SCORE.INTRA.POLAR.0>
0

>  <SCORE.INTRA.REPUL>
0

>  <SCORE.INTRA.REPUL.0>
0

>  <SCORE.INTRA.SOLV>
-0.146677

>  <SCORE.INTRA.SOLV.lig_0>
-40.1875

>  <SCORE.INTRA.VDW>
-0.410861

>  <SCORE.INTRA.VDW.0>
-0.318058

>  <SCORE.INTRA.norm>
0.0579473

>  <SCORE.RESTR>
0

>  <SCORE.RESTR.CAVITY>
0

>  <SCORE.RESTR.norm>
0

>  <SCORE.SYSTEM>
-20.9533

>  <SCORE.SYSTEM.CONST>
0

>  <SCORE.SYSTEM.DIHEDRAL>
5.08181

>  <SCORE.SYSTEM.POLAR>
-3.08259

>  <SCORE.SYSTEM.SOLV>
-0.243932

>  <SCORE.SYSTEM.VDW>
-5.3062

>  <SCORE.SYSTEM.norm>
-1.74611

>  <SCORE.heavy>
12

>  <SCORE.norm>
-4.36479

$$$$
P134782587
 OpenBabel12072022113D
libRbt.so/2013.1/901 2013/11/27
 18 18  0  0  0  0  0  0  0  0999 V2000
  -30.2293   17.6506  -16.5939 C   0  0  0  0  0  0  0  0  0  0  0  0
  -31.2832   18.0774  -15.5657 C   0  0  0  0  0  0  0  0  0  0  0  0
  -30.8170   17.4695  -14.2541 C   0  0  1  0  0  0  0  0  0  0  0  0
  -29.3019   17.5176  -14.3573 C   0  0  0  0  0  0  0  0  0  0  0  0
  -29.0436   17.0690  -15.8030 C   0  0  1  0  0  0  0  0  0  0  0  0
  -29.0154   15.5451  -15.9126 C   0  0  0  0  0  0  0  0  0  0  0  0
  -30.0671   14.9031  -15.9743 O   0  0  0  0  0  0  0  0  0  0  0  0
  -27.8142   14.8894  -16.0109 N   0  0  0  0  0  0  0  0  0  0  0  0
  -26.5565   15.4124  -16.1732 C   0  0  0  0  0  0  0  0  0  0  0  0
  -26.2664   16.5985  -16.2054 O   0  0  0  0  0  0  0  0  0  0  0  0
  -25.6027   14.4560  -16.3335 N   0  0  0  0  0  0  0  0  0  0  0  0
  -31.2956   18.2578  -13.1031 N   0  3  0  0  0  0  0  0  0  0  0  0
  -31.1583   17.7710  -12.2076 H   0  0  0  0  0  0  0  0  0  0  0  0
  -30.8063   19.1607  -13.0440 H   0  0  0  0  0  0  0  0  0  0  0  0
  -32.2993   18.4651  -13.1942 H   0  0  0  0  0  0  0  0  0  0  0  0
  -27.9021   13.8928  -16.1399 H   0  0  0  0  0  0  0  0  0  0  0  0
  -24.6364   14.6685  -16.1265 H   0  0  0  0  0  0  0  0  0  0  0  0
  -25.7300   13.8826  -17.1618 H   0  0  0  0  0  0  0  0  0  0  0  0
  1  2  1  0  0  0  0
  1  5  1  0  0  0  0
  2  3  1  0  0  0  0
  3  4  1  0  0  0  0
  3 12  1  1  0  0  0
  4  5  1  0  0  0  0
  5  6  1  1  0  0  0
  6  7  2  0  0  0  0
  6  8  1  0  0  0  0
  8  9  1  0  0  0  0
  8 16  1  0  0  0  0
  9 10  2  0  0  0  0
  9 11  1  0  0  0  0
 11 17  1  0  0  0  0
 11 18  1  0  0  0  0
 12 13  1  0  0  0  0
 12 14  1  0  0  0  0
 12 15  1  0  0  0  0
M  CHG  1  12   1
M  END
>  <CHROM.0>
-59.22487057,-61.97465129,-64.54089739,-42.74945065,-52.62140914,-64.09045167
-66.15693887,-55.57459221,-167.98253104

>  <CHROM.1>
168.45075000,-34.40309896,-157.63812086,-28.93251739,16.47867348,-15.49979870
2.50572050,-0.00919878,0.60394539

>  <Name>
P134782587

>  <RI>
0

>  <Rbt.Current_Directory>
/home/fstefaniak/projects/zuza/docking/adenine/4TZX

>  <Rbt.Executable>
rbdock ($Id: //depot/dev/client3/rdock/2013.1/src/exe/rbdock.cxx#4 $)

>  <Rbt.Library>
libRbt.so (2013.1, Build901 2013/11/27)

>  <Rbt.Parameter_File>
/home/fstefaniak/progs/rDock//data/scripts/dock_solv.prm

>  <Rbt.Receptor>
4tzx.prm

>  <SCORE>
-51.6181

>  <SCORE.INTER>
-31.1993

>  <SCORE.INTER.CONST>
1

>  <SCORE.INTER.POLAR>
-4.77546

>  <SCORE.INTER.ROT>
2

>  <SCORE.INTER.SOLV>
21.9786

>  <SCORE.INTER.VDW>
-17.1409

>  <SCORE.INTER.norm>
-2.59994

>  <SCORE.INTRA>
0.597702

>  <SCORE.INTRA.DIHEDRAL>
1.90402

>  <SCORE.INTRA.DIHEDRAL.0>
1.79452

>  <SCORE.INTRA.POLAR>
0

>  <SCORE.INTRA.POLAR.0>
0

>  <SCORE.INTRA.REPUL>
0

>  <SCORE.INTRA.REPUL.0>
0

>  <SCORE.INTRA.SOLV>
-0.116183

>  <SCORE.INTRA.SOLV.lig_0>
-40.1875

>  <SCORE.INTRA.VDW>
-0.296217

>  <SCORE.INTRA.VDW.0>
-0.318058

>  <SCORE.INTRA.norm>
0.0498085

>  <SCORE.RESTR>
0

>  <SCORE.RESTR.CAVITY>
0

>  <SCORE.RESTR.norm>
0

>  <SCORE.SYSTEM>
-21.0165

>  <SCORE.SYSTEM.CONST>
0

>  <SCORE.SYSTEM.DIHEDRAL>
4.78549

>  <SCORE.SYSTEM.POLAR>
-3.08516

>  <SCORE.SYSTEM.SOLV>
0.196498

>  <SCORE.SYSTEM.VDW>
-5.3878

>  <SCORE.SYSTEM.norm>
-1.75138

>  <SCORE.heavy>
12

>  <SCORE.norm>
-4.30151

$$$$
P134782587
 OpenBabel12072022113D
libRbt.so/2013.1/901 2013/11/27
 18 18  0  0  0  0  0  0  0  0999 V2000
  -30.1109   17.6982  -16.5677 C   0  0  0  0  0  0  0  0  0  0  0  0
  -31.1976   18.1258  -15.5746 C   0  0  0  0  0  0  0  0  0  0  0  0
  -30.7888   17.4963  -14.2542 C   0  0  1  0  0  0  0  0  0  0  0  0
  -29.2703   17.5265  -14.2996 C   0  0  0  0  0  0  0  0  0  0  0  0
  -28.9631   17.0921  -15.7401 C   0  0  1  0  0  0  0  0  0  0  0  0
  -28.9493   15.5695  -15.8676 C   0  0  0  0  0  0  0  0  0  0  0  0
  -30.0070   14.9385  -15.9396 O   0  0  0  0  0  0  0  0  0  0  0  0
  -27.7542   14.9033  -15.9705 N   0  0  0  0  0  0  0  0  0  0  0  0
  -26.4911   15.4161  -16.1234 C   0  0  0  0  0  0  0  0  0  0  0  0
  -26.1895   16.5997  -16.1408 O   0  0  0  0  0  0  0  0  0  0  0  0
  -25.5461   14.4524  -16.2924 N   0  0  0  0  0  0  0  0  0  0  0  0
  -31.3009   18.2767  -13.1122 N   0  3  0  0  0  0  0  0  0  0  0  0
  -30.8269   19.1838  -13.0105 H   0  0  0  0  0  0  0  0  0  0  0  0
  -32.3077   18.4618  -13.2125 H   0  0  0  0  0  0  0  0  0  0  0  0
  -31.1764   17.7598  -12.2313 H   0  0  0  0  0  0  0  0  0  0  0  0
  -27.8514   13.9093  -16.1115 H   0  0  0  0  0  0  0  0  0  0  0  0
  -25.7452   13.4988  -16.0228 H   0  0  0  0  0  0  0  0  0  0  0  0
  -24.6038   14.7559  -16.0667 H   0  0  0  0  0  0  0  0  0  0  0  0
  1  2  1  0  0  0  0
  1  5  1  0  0  0  0
  2  3  1  0  0  0  0
  3  4  1  0  0  0  0
  3 12  1  1  0  0  0
  4  5  1  0  0  0  0
  5  6  1  1  0  0  0
  6  7  2  0  0  0  0
  6  8  1  0  0  0  0
  8  9  1  0  0  0  0
  8 16  1  0  0  0  0
  9 10  2  0  0  0  0
  9 11  1  0  0  0  0
 11 17  1  0  0  0  0
 11 18  1  0  0  0  0
 12 13  1  0  0  0  0
 12 14  1  0  0  0  0
 12 15  1  0  0  0  0
M  CHG  1  12   1
M  END
>  <CHROM.0>
-59.16093135,50.24598348,-68.51910946,-43.23751031,-56.80475940,-62.76625611
-67.13347946,-58.42317399,-169.26722117

>  <CHROM.1>
-70.07884776,-36.41830647,-18.50791761,-28.87403564,16.49712425,-15.46011150
2.50983960,0.00604147,0.56158686

>  <Name>
P134782587

>  <RI>
0

>  <Rbt.Current_Directory>
/home/fstefaniak/projects/zuza/docking/adenine/4TZX

>  <Rbt.Executable>
rbdock ($Id: //depot/dev/client3/rdock/2013.1/src/exe/rbdock.cxx#4 $)

>  <Rbt.Library>
libRbt.so (2013.1, Build901 2013/11/27)

>  <Rbt.Parameter_File>
/home/fstefaniak/progs/rDock//data/scripts/dock_solv.prm

>  <Rbt.Receptor>
4tzx.prm

>  <SCORE>
-51.0763

>  <SCORE.INTER>
-31.3808

>  <SCORE.INTER.CONST>
1

>  <SCORE.INTER.POLAR>
-4.73691

>  <SCORE.INTER.ROT>
2

>  <SCORE.INTER.SOLV>
21.9079

>  <SCORE.INTER.VDW>
-17.3668

>  <SCORE.INTER.norm>
-2.61507

>  <SCORE.INTRA>
0.619854

>  <SCORE.INTRA.DIHEDRAL>
1.99302

>  <SCORE.INTRA.DIHEDRAL.0>
1.79452

>  <SCORE.INTRA.POLAR>
0

>  <SCORE.INTRA.POLAR.0>
0

>  <SCORE.INTRA.REPUL>
0

>  <SCORE.INTRA.REPUL.0>
0

>  <SCORE.INTRA.SOLV>
-0.133795

>  <SCORE.INTRA.SOLV.lig_0>
-40.1875

>  <SCORE.INTRA.VDW>
-0.309759

>  <SCORE.INTRA.VDW.0>
-0.318058

>  <SCORE.INTRA.norm>
0.0516545

>  <SCORE.RESTR>
0

>  <SCORE.RESTR.CAVITY>
0

>  <SCORE.RESTR.norm>
0

>  <SCORE.SYSTEM>
-20.3153

>  <SCORE.SYSTEM.CONST>
0

>  <SCORE.SYSTEM.DIHEDRAL>
4.99708

>  <SCORE.SYSTEM.POLAR>
-3.082

>  <SCORE.SYSTEM.SOLV>
0.280353

>  <SCORE.SYSTEM.VDW>
-5.02937

>  <SCORE.SYSTEM.norm>
-1.69295

>  <SCORE.heavy>
12

>  <SCORE.norm>
-4.25636

$$$$
P134782635
 OpenBabel12072022113D
libRbt.so/2013.1/901 2013/11/27
 18 18  0  0  0  0  0  0  0  0999 V2000
  -28.3719   13.8040  -16.1201 C   0  0  0  0  0  0  0  0  0  0  0  0
  -29.0060   14.9440  -16.9048 C   0  0  0  0  0  0  0  0  0  0  0  0
  -28.1708   16.1834  -16.5437 C   0  0  2  0  0  0  0  0  0  0  0  0
  -26.8066   15.6209  -16.1110 C   0  0  1  0  0  0  0  0  0  0  0  0
  -26.8872   14.1012  -16.2328 C   0  0  0  0  0  0  0  0  0  0  0  0
  -25.7231   16.1231  -16.9943 N   0  3  0  0  0  0  0  0  0  0  0  0
  -25.6734   17.1471  -17.0469 H   0  0  0  0  0  0  0  0  0  0  0  0
  -24.8101   15.8001  -16.6043 H   0  0  0  0  0  0  0  0  0  0  0  0
  -25.7836   15.7463  -17.9472 H   0  0  0  0  0  0  0  0  0  0  0  0
  -28.7903   16.9598  -15.3853 C   0  0  0  0  0  0  0  0  0  0  0  0
  -28.1626   17.2047  -14.3571 O   0  0  0  0  0  0  0  0  0  0  0  0
  -30.0580   17.4796  -15.5264 N   0  0  0  0  0  0  0  0  0  0  0  0
  -30.7622   17.7359  -16.6740 C   0  0  0  0  0  0  0  0  0  0  0  0
  -30.3833   17.4739  -17.8116 O   0  0  0  0  0  0  0  0  0  0  0  0
  -31.9409   18.3673  -16.4507 N   0  0  0  0  0  0  0  0  0  0  0  0
  -30.3593   17.9864  -14.7038 H   0  0  0  0  0  0  0  0  0  0  0  0
  -32.7680   17.8493  -16.1796 H   0  0  0  0  0  0  0  0  0  0  0  0
  -32.1290   19.1952  -17.0067 H   0  0  0  0  0  0  0  0  0  0  0  0
  1  2  1  0  0  0  0
  1  5  1  0  0  0  0
  2  3  1  0  0  0  0
  3 10  1  1  0  0  0
  3  4  1  0  0  0  0
  4  5  1  0  0  0  0
  4  6  1  6  0  0  0
  6  7  1  0  0  0  0
  6  8  1  0  0  0  0
  6  9  1  0  0  0  0
 10 11  2  0  0  0  0
 10 12  1  0  0  0  0
 12 13  1  0  0  0  0
 12 16  1  0  0  0  0
 13 14  2  0  0  0  0
 13 15  1  0  0  0  0
 15 17  1  0  0  0  0
 15 18  1  0  0  0  0
M  CHG  1   6   1
M  END
>  <CHROM.0>
-59.66787816,-64.08620381,-46.58058436,-43.50650224,-59.66916362,-176.24360912
-67.74459462,-60.07258183,-168.76569454

>  <CHROM.1>
123.86879807,55.86233311,-82.37696425,-28.75194038,16.37066199,-16.27117550
0.48797951,0.36927786,-2.58893487

>  <Name>
P134782635

>  <RI>
0

>  <Rbt.Current_Directory>
/home/fstefaniak/projects/zuza/docking/adenine/4TZX

>  <Rbt.Executable>
rbdock ($Id: //depot/dev/client3/rdock/2013.1/src/exe/rbdock.cxx#4 $)

>  <Rbt.Library>
libRbt.so (2013.1, Build901 2013/11/27)

>  <Rbt.Parameter_File>
/home/fstefaniak/progs/rDock//data/scripts/dock_solv.prm

>  <Rbt.Receptor>
4tzx.prm

>  <SCORE>
-50.1628

>  <SCORE.INTER>
-30.801

>  <SCORE.INTER.CONST>
1

>  <SCORE.INTER.POLAR>
-4.66342

>  <SCORE.INTER.ROT>
2

>  <SCORE.INTER.SOLV>
20.5808

>  <SCORE.INTER.VDW>
-16.7828

>  <SCORE.INTER.norm>
-2.56675

>  <SCORE.INTRA>
1.24984

>  <SCORE.INTRA.DIHEDRAL>
-1.09386

>  <SCORE.INTRA.DIHEDRAL.0>
2.30794

>  <SCORE.INTRA.POLAR>
0.957875

>  <SCORE.INTRA.POLAR.0>
-0.957875

>  <SCORE.INTRA.REPUL>
0

>  <SCORE.INTRA.REPUL.0>
0

>  <SCORE.INTRA.SOLV>
-2.93512

>  <SCORE.INTRA.SOLV.lig_0>
-36.6402

>  <SCORE.INTRA.VDW>
0.00755227

>  <SCORE.INTRA.VDW.0>
-0.753591

>  <SCORE.INTRA.norm>
0.104153

>  <SCORE.RESTR>
0

>  <SCORE.RESTR.CAVITY>
0

>  <SCORE.RESTR.norm>
0

>  <SCORE.SYSTEM>
-20.6117

>  <SCORE.SYSTEM.CONST>
0

>  <SCORE.SYSTEM.DIHEDRAL>
5.11053

>  <SCORE.SYSTEM.POLAR>
-3.15596

>  <SCORE.SYSTEM.SOLV>
0.0863093

>  <SCORE.SYSTEM.VDW>
-4.95355

>  <SCORE.SYSTEM.norm>
-1.71764

>  <SCORE.heavy>
12

>  <SCORE.norm>
-4.18023

$$$$
P134782635
 OpenBabel12072022113D
libRbt.so/2013.1/901 2013/11/27
 18 18  0  0  0  0  0  0  0  0999 V2000
  -23.9022   11.8315  -15.4917 C   0  0  0  0  0  0  0  0  0  0  0  0
  -24.4690   13.1894  -15.1018 C   0  0  0  0  0  0  0  0  0  0  0  0
  -25.9739   13.0888  -15.4003 C   0  0  2  0  0  0  0  0  0  0  0  0
  -26.2827   11.5835  -15.3408 C   0  0  1  0  0  0  0  0  0  0  0  0
  -24.9741   10.8681  -15.0141 C   0  0  0  0  0  0  0  0  0  0  0  0
  -27.2770   11.2891  -14.2772 N   0  3  0  0  0  0  0  0  0  0  0  0
  -27.4759   10.2886  -14.1623 H   0  0  0  0  0  0  0  0  0  0  0  0
  -26.8876   11.6220  -13.3675 H   0  0  0  0  0  0  0  0  0  0  0  0
  -28.1633   11.7879  -14.4159 H   0  0  0  0  0  0  0  0  0  0  0  0
  -26.3072   13.6208  -16.7910 C   0  0  0  0  0  0  0  0  0  0  0  0
  -27.0593   13.0187  -17.5546 O   0  0  0  0  0  0  0  0  0  0  0  0
  -25.8251   14.8534  -17.1724 N   0  0  0  0  0  0  0  0  0  0  0  0
  -25.3713   15.8821  -16.3885 C   0  0  0  0  0  0  0  0  0  0  0  0
  -25.2582   15.8458  -15.1670 O   0  0  0  0  0  0  0  0  0  0  0  0
  -25.0854   17.0060  -17.0907 N   0  0  0  0  0  0  0  0  0  0  0  0
  -26.1211   15.1100  -18.1056 H   0  0  0  0  0  0  0  0  0  0  0  0
  -24.1294   17.2497  -17.3202 H   0  0  0  0  0  0  0  0  0  0  0  0
  -25.6978   17.8027  -16.9482 H   0  0  0  0  0  0  0  0  0  0  0  0
  1  2  1  0  0  0  0
  1  5  1  0  0  0  0
  2  3  1  0  0  0  0
  3 10  1  6  0  0  0
  3  4  1  0  0  0  0
  4  5  1  0  0  0  0
  4  6  1  1  0  0  0
  6  7  1  0  0  0  0
  6  8  1  0  0  0  0
  6  9  1  0  0  0  0
 10 11  2  0  0  0  0
 10 12  1  0  0  0  0
 12 13  1  0  0  0  0
 12 16  1  0  0  0  0
 13 14  2  0  0  0  0
 13 15  1  0  0  0  0
 15 17  1  0  0  0  0
 15 18  1  0  0  0  0
M  CHG  1   6   1
M  END
>  <CHROM.0>
-60.03186829,-75.11997545,-72.35696348,-43.33702379,-57.87210168,-178.13237324
-170.77344321,-59.47229733,-168.66821856

>  <CHROM.1>
134.88005536,-176.68432446,-101.68017056,-25.67708357,13.52840554,-15.89339147
-1.69556855,-0.54234911,-0.40472465

>  <Name>
P134782635

>  <RI>
0

>  <Rbt.Current_Directory>
/home/fstefaniak/projects/zuza/docking/adenine/4TZX

>  <Rbt.Executable>
rbdock ($Id: //depot/dev/client3/rdock/2013.1/src/exe/rbdock.cxx#4 $)

>  <Rbt.Library>
libRbt.so (2013.1, Build901 2013/11/27)

>  <Rbt.Parameter_File>
/home/fstefaniak/progs/rDock//data/scripts/dock_solv.prm

>  <Rbt.Receptor>
4tzx.prm

>  <SCORE>
-48.9525

>  <SCORE.INTER>
-31.4631

>  <SCORE.INTER.CONST>
1

>  <SCORE.INTER.POLAR>
-5.63212

>  <SCORE.INTER.ROT>
2

>  <SCORE.INTER.SOLV>
15.3718

>  <SCORE.INTER.VDW>
-12.259

>  <SCORE.INTER.norm>
-2.62193

>  <SCORE.INTRA>
2.35224

>  <SCORE.INTRA.DIHEDRAL>
-0.698209

>  <SCORE.INTRA.DIHEDRAL.0>
2.30794

>  <SCORE.INTRA.POLAR>
0.957875

>  <SCORE.INTRA.POLAR.0>
-0.957875

>  <SCORE.INTRA.REPUL>
0

>  <SCORE.INTRA.REPUL.0>
0

>  <SCORE.INTRA.SOLV>
-2.56498

>  <SCORE.INTRA.SOLV.lig_0>
-36.6402

>  <SCORE.INTRA.VDW>
0.727063

>  <SCORE.INTRA.VDW.0>
-0.753591

>  <SCORE.INTRA.norm>
0.19602

>  <SCORE.RESTR>
0.245517

>  <SCORE.RESTR.CAVITY>
0.245517

>  <SCORE.RESTR.norm>
0.0204598

>  <SCORE.SYSTEM>
-20.0872

>  <SCORE.SYSTEM.CONST>
0

>  <SCORE.SYSTEM.DIHEDRAL>
6.07883

>  <SCORE.SYSTEM.POLAR>
-3.02938

>  <SCORE.SYSTEM.SOLV>
0.028145

>  <SCORE.SYSTEM.VDW>
-5.32916

>  <SCORE.SYSTEM.norm>
-1.67393

>  <SCORE.heavy>
12

>  <SCORE.norm>
-4.07938

$$$$
P134782635
 OpenBabel12072022113D
libRbt.so/2013.1/901 2013/11/27
 18 18  0  0  0  0  0  0  0  0999 V2000
  -27.9846   13.7365  -15.9942 C   0  0  0  0  0  0  0  0  0  0  0  0
  -28.6967   14.7293  -16.9021 C   0  0  0  0  0  0  0  0  0  0  0  0
  -28.0011   16.0747  -16.6372 C   0  0  2  0  0  0  0  0  0  0  0  0
  -26.6059   15.6950  -16.1137 C   0  0  1  0  0  0  0  0  0  0  0  0
  -26.5328   14.1703  -16.0921 C   0  0  0  0  0  0  0  0  0  0  0  0
  -25.5438   16.2204  -17.0096 N   0  3  0  0  0  0  0  0  0  0  0  0
  -25.5653   17.2404  -17.1228 H   0  0  0  0  0  0  0  0  0  0  0  0
  -24.6179   15.9868  -16.5874 H   0  0  0  0  0  0  0  0  0  0  0  0
  -25.5595   15.7848  -17.9388 H   0  0  0  0  0  0  0  0  0  0  0  0
  -28.7372   16.8882  -15.5767 C   0  0  0  0  0  0  0  0  0  0  0  0
  -28.3182   16.9858  -14.4251 O   0  0  0  0  0  0  0  0  0  0  0  0
  -29.8550   17.6075  -15.9374 N   0  0  0  0  0  0  0  0  0  0  0  0
  -30.2492   18.0217  -17.1831 C   0  0  0  0  0  0  0  0  0  0  0  0
  -29.6752   17.7528  -18.2340 O   0  0  0  0  0  0  0  0  0  0  0  0
  -31.3437   18.8212  -17.1614 N   0  0  0  0  0  0  0  0  0  0  0  0
  -30.2504   18.1194  -15.1589 H   0  0  0  0  0  0  0  0  0  0  0  0
  -31.2538   19.8295  -17.1255 H   0  0  0  0  0  0  0  0  0  0  0  0
  -32.1667   18.4575  -16.6920 H   0  0  0  0  0  0  0  0  0  0  0  0
  1  2  1  0  0  0  0
  1  5  1  0  0  0  0
  2  3  1  0  0  0  0
  3 10  1  1  0  0  0
  3  4  1  0  0  0  0
  4  5  1  0  0  0  0
  4  6  1  6  0  0  0
  6  7  1  0  0  0  0
  6  8  1  0  0  0  0
  6  9  1  0  0  0  0
 10 11  2  0  0  0  0
 10 12  1  0  0  0  0
 12 13  1  0  0  0  0
 12 16  1  0  0  0  0
 13 14  2  0  0  0  0
 13 15  1  0  0  0  0
 15 17  1  0  0  0  0
 15 18  1  0  0  0  0
M  CHG  1   6   1
M  END
>  <CHROM.0>
-62.66734159,-160.39360772,-69.44153185,-43.38788475,-53.58691713,-66.64155336
-69.97544832,-171.21643718,-167.99276759

>  <CHROM.1>
103.96022924,58.61353928,92.83006739,-28.45550219,16.43636241,-16.45007007
0.51890343,-0.54634199,2.18494760

>  <Name>
P134782635

>  <RI>
0

>  <Rbt.Current_Directory>
/home/fstefaniak/projects/zuza/docking/adenine/4TZX

>  <Rbt.Executable>
rbdock ($Id: //depot/dev/client3/rdock/2013.1/src/exe/rbdock.cxx#4 $)

>  <Rbt.Library>
libRbt.so (2013.1, Build901 2013/11/27)

>  <Rbt.Parameter_File>
/home/fstefaniak/progs/rDock//data/scripts/dock_solv.prm

>  <Rbt.Receptor>
4tzx.prm

>  <SCORE>
-48.3163

>  <SCORE.INTER>
-29.1604

>  <SCORE.INTER.CONST>
1

>  <SCORE.INTER.POLAR>
-4.58985

>  <SCORE.INTER.ROT>
2

>  <SCORE.INTER.SOLV>
21.5764

>  <SCORE.INTER.VDW>
-16.2662

>  <SCORE.INTER.norm>
-2.43003

>  <SCORE.INTRA>
1.07278

>  <SCORE.INTRA.DIHEDRAL>
-0.700388

>  <SCORE.INTRA.DIHEDRAL.0>
2.30794

>  <SCORE.INTRA.POLAR>
0.957875

>  <SCORE.INTRA.POLAR.0>
-0.957875

>  <SCORE.INTRA.REPUL>
0

>  <SCORE.INTRA.REPUL.0>
0

>  <SCORE.INTRA.SOLV>
-3.1271

>  <SCORE.INTRA.SOLV.lig_0>
-36.6402

>  <SCORE.INTRA.VDW>
-0.270254

>  <SCORE.INTRA.VDW.0>
-0.753591

>  <SCORE.INTRA.norm>
0.0893982

>  <SCORE.RESTR>
0

>  <SCORE.RESTR.CAVITY>
0

>  <SCORE.RESTR.norm>
0

>  <SCORE.SYSTEM>
-20.2287

>  <SCORE.SYSTEM.CONST>
0

>  <SCORE.SYSTEM.DIHEDRAL>
7.30104

>  <SCORE.SYSTEM.POLAR>
-3.03819

>  <SCORE.SYSTEM.SOLV>
-0.0160965

>  <SCORE.SYSTEM.VDW>
-5.78684

>  <SCORE.SYSTEM.norm>
-1.68573

>  <SCORE.heavy>
12

>  <SCORE.norm>
-4.02636

$$$$
P134782687
 OpenBabel12072022113D
libRbt.so/2013.1/901 2013/11/27
 18 18  0  0  0  0  0  0  0  0999 V2000
  -30.7288   16.4882  -15.5450 C   0  0  0  0  0  0  0  0  0  0  0  0
  -30.6184   18.0014  -15.6401 C   0  0  1  0  0  0  0  0  0  0  0  0
  -30.5355   18.2526  -17.1426 C   0  0  0  0  0  0  0  0  0  0  0  0
  -29.8135   17.0676  -17.6911 N   0  3  0  0  0  0  0  0  0  0  0  0
  -30.2357   16.7300  -18.5647 H   0  0  0  0  0  0  0  0  0  0  0  0
  -28.8270   17.3132  -17.9002 H   0  0  0  0  0  0  0  0  0  0  0  0
  -29.7815   15.9725  -16.6169 C   0  0  1  0  0  0  0  0  0  0  0  0
  -28.3261   15.8092  -16.1282 C   0  0  0  0  0  0  0  0  0  0  0  0
  -27.8624   16.6743  -15.3758 O   0  0  0  0  0  0  0  0  0  0  0  0
  -27.5551   14.7594  -16.5436 N   0  0  0  0  0  0  0  0  0  0  0  0
  -26.2307   14.6026  -16.2506 C   0  0  0  0  0  0  0  0  0  0  0  0
  -25.8105   14.0612  -15.2387 O   0  0  0  0  0  0  0  0  0  0  0  0
  -25.3987   15.1165  -17.1868 N   0  0  0  0  0  0  0  0  0  0  0  0
  -31.7628   18.6218  -15.0902 O   0  0  0  0  0  0  0  0  0  0  0  0
  -28.0730   13.9112  -16.7302 H   0  0  0  0  0  0  0  0  0  0  0  0
  -24.4605   15.4145  -16.9536 H   0  0  0  0  0  0  0  0  0  0  0  0
  -25.4888   14.7147  -18.1157 H   0  0  0  0  0  0  0  0  0  0  0  0
  -31.8474   18.3708  -14.1508 H   0  0  0  0  0  0  0  0  0  0  0  0
  1  2  1  0  0  0  0
  1  7  1  0  0  0  0
  2  3  1  0  0  0  0
  2 14  1  6  0  0  0
  3  4  1  0  0  0  0
  4  5  1  0  0  0  0
  4  6  1  0  0  0  0
  4  7  1  0  0  0  0
  7  8  1  1  0  0  0
  8  9  2  0  0  0  0
  8 10  1  0  0  0  0
 10 11  1  0  0  0  0
 10 15  1  0  0  0  0
 11 12  2  0  0  0  0
 11 13  1  0  0  0  0
 13 16  1  0  0  0  0
 13 17  1  0  0  0  0
 14 18  1  0  0  0  0
M  CHG  1   4   1
M  END
>  <CHROM.0>
-56.57463547,63.28043747,-73.01594423,178.13445869,58.43822372,-59.60491994
-173.99811941,-174.55517219,-169.15454418

>  <CHROM.1>
60.09323748,-39.74288061,174.20871090,86.79878069,154.50629428,-28.69142269
16.30109052,-16.20211435,3.09533159,0.58625380,-1.40172890

>  <Name>
P134782687

>  <RI>
0

>  <Rbt.Current_Directory>
/home/fstefaniak/projects/zuza/docking/adenine/4TZX

>  <Rbt.Executable>
rbdock ($Id: //depot/dev/client3/rdock/2013.1/src/exe/rbdock.cxx#4 $)

>  <Rbt.Library>
libRbt.so (2013.1, Build901 2013/11/27)

>  <Rbt.Parameter_File>
/home/fstefaniak/progs/rDock//data/scripts/dock_solv.prm

>  <Rbt.Receptor>
4tzx.prm

>  <SCORE>
-50.2082

>  <SCORE.INTER>
-33.5682

>  <SCORE.INTER.CONST>
1

>  <SCORE.INTER.POLAR>
-5.13606

>  <SCORE.INTER.ROT>
4

>  <SCORE.INTER.SOLV>
23.6861

>  <SCORE.INTER.VDW>
-19.4206

>  <SCORE.INTER.norm>
-2.79735

>  <SCORE.INTRA>
-0.235571

>  <SCORE.INTRA.DIHEDRAL>
0.794691

>  <SCORE.INTRA.DIHEDRAL.0>
2.76127

>  <SCORE.INTRA.POLAR>
0

>  <SCORE.INTRA.POLAR.0>
0

>  <SCORE.INTRA.REPUL>
0

>  <SCORE.INTRA.REPUL.0>
0

>  <SCORE.INTRA.SOLV>
-0.583693

>  <SCORE.INTRA.SOLV.lig_0>
-41.0816

>  <SCORE.INTRA.VDW>
-0.34107

>  <SCORE.INTRA.VDW.0>
-0.449492

>  <SCORE.INTRA.norm>
-0.0196309

>  <SCORE.RESTR>
0

>  <SCORE.RESTR.CAVITY>
0

>  <SCORE.RESTR.norm>
0

>  <SCORE.SYSTEM>
-16.4044

>  <SCORE.SYSTEM.CONST>
0

>  <SCORE.SYSTEM.DIHEDRAL>
3.81597

>  <SCORE.SYSTEM.POLAR>
-2.45726

>  <SCORE.SYSTEM.SOLV>
-0.306126

>  <SCORE.SYSTEM.VDW>
-3.91536

>  <SCORE.SYSTEM.norm>
-1.36703

>  <SCORE.heavy>
12

>  <SCORE.norm>
-4.18402

$$$$
P134782687
 OpenBabel12072022113D
libRbt.so/2013.1/901 2013/11/27
 18 18  0  0  0  0  0  0  0  0999 V2000
  -30.7922   16.5919  -15.3651 C   0  0  0  0  0  0  0  0  0  0  0  0
  -30.3047   18.0307  -15.4218 C   0  0  1  0  0  0  0  0  0  0  0  0
  -30.1842   18.3007  -16.9185 C   0  0  0  0  0  0  0  0  0  0  0  0
  -29.7934   16.9900  -17.5152 N   0  3  0  0  0  0  0  0  0  0  0  0
  -30.3006   16.7978  -18.3877 H   0  0  0  0  0  0  0  0  0  0  0  0
  -28.7803   16.9857  -17.7402 H   0  0  0  0  0  0  0  0  0  0  0  0
  -30.0225   15.8885  -16.4720 C   0  0  1  0  0  0  0  0  0  0  0  0
  -28.6482   15.3483  -16.0214 C   0  0  0  0  0  0  0  0  0  0  0  0
  -28.5161   14.1256  -15.8901 O   0  0  0  0  0  0  0  0  0  0  0  0
  -27.6144   16.1965  -15.7370 N   0  0  0  0  0  0  0  0  0  0  0  0
  -26.3325   16.0370  -16.1795 C   0  0  0  0  0  0  0  0  0  0  0  0
  -26.0178   15.9538  -17.3575 O   0  0  0  0  0  0  0  0  0  0  0  0
  -25.4158   15.9651  -15.1859 N   0  0  0  0  0  0  0  0  0  0  0  0
  -31.2467   18.9016  -14.8293 O   0  0  0  0  0  0  0  0  0  0  0  0
  -27.8991   17.1446  -15.5306 H   0  0  0  0  0  0  0  0  0  0  0  0
  -24.6282   15.3323  -15.2383 H   0  0  0  0  0  0  0  0  0  0  0  0
  -25.2133   16.8436  -14.7172 H   0  0  0  0  0  0  0  0  0  0  0  0
  -31.3081   18.7108  -13.8740 H   0  0  0  0  0  0  0  0  0  0  0  0
  1  2  1  0  0  0  0
  1  7  1  0  0  0  0
  2  3  1  0  0  0  0
  2 14  1  6  0  0  0
  3  4  1  0  0  0  0
  4  5  1  0  0  0  0
  4  6  1  0  0  0  0
  4  7  1  0  0  0  0
  7  8  1  1  0  0  0
  8  9  2  0  0  0  0
  8 10  1  0  0  0  0
 10 11  1  0  0  0  0
 10 15  1  0  0  0  0
 11 12  2  0  0  0  0
 11 13  1  0  0  0  0
 13 16  1  0  0  0  0
 13 17  1  0  0  0  0
 14 18  1  0  0  0  0
M  CHG  1   4   1
M  END
>  <CHROM.0>
-63.11033936,57.62188502,-66.67545356,-44.10525030,-174.48340121,-54.21222469
-68.03939629,-62.02155401,-169.46403524

>  <CHROM.1>
65.98387754,107.66920433,-133.86489006,57.18384282,141.40697476,-28.72360717
16.55036583,-16.06807746,2.65898162,-0.02076004,0.21567913

>  <Name>
P134782687

>  <RI>
0

>  <Rbt.Current_Directory>
/home/fstefaniak/projects/zuza/docking/adenine/4TZX

>  <Rbt.Executable>
rbdock ($Id: //depot/dev/client3/rdock/2013.1/src/exe/rbdock.cxx#4 $)

>  <Rbt.Library>
libRbt.so (2013.1, Build901 2013/11/27)

>  <Rbt.Parameter_File>
/home/fstefaniak/progs/rDock//data/scripts/dock_solv.prm

>  <Rbt.Receptor>
4tzx.prm

>  <SCORE>
-49.4903

>  <SCORE.INTER>
-28.6589

>  <SCORE.INTER.CONST>
1

>  <SCORE.INTER.POLAR>
-4.6643

>  <SCORE.INTER.ROT>
4

>  <SCORE.INTER.SOLV>
23.5137

>  <SCORE.INTER.VDW>
-17.6628

>  <SCORE.INTER.norm>
-2.38824

>  <SCORE.INTRA>
-0.483801

>  <SCORE.INTRA.DIHEDRAL>
-0.0969622

>  <SCORE.INTRA.DIHEDRAL.0>
2.76127

>  <SCORE.INTRA.POLAR>
0

>  <SCORE.INTRA.POLAR.0>
0

>  <SCORE.INTRA.REPUL>
0

>  <SCORE.INTRA.REPUL.0>
0

>  <SCORE.INTRA.SOLV>
1.44989

>  <SCORE.INTRA.SOLV.lig_0>
-41.0816

>  <SCORE.INTRA.VDW>
-1.16027

>  <SCORE.INTRA.VDW.0>
-0.449492

>  <SCORE.INTRA.norm>
-0.0403168

>  <SCORE.RESTR>
0

>  <SCORE.RESTR.CAVITY>
0

>  <SCORE.RESTR.norm>
0

>  <SCORE.SYSTEM>
-20.3476

>  <SCORE.SYSTEM.CONST>
0

>  <SCORE.SYSTEM.DIHEDRAL>
4.62901

>  <SCORE.SYSTEM.POLAR>
-3.01808

>  <SCORE.SYSTEM.SOLV>
0.067846

>  <SCORE.SYSTEM.VDW>
-5.07044

>  <SCORE.SYSTEM.norm>
-1.69563

>  <SCORE.heavy>
12

>  <SCORE.norm>
-4.12419

$$$$
P134782687
 OpenBabel12072022113D
libRbt.so/2013.1/901 2013/11/27
 18 18  0  0  0  0  0  0  0  0999 V2000
  -30.7822   17.3097  -15.8561 C   0  0  0  0  0  0  0  0  0  0  0  0
  -30.6296   18.6318  -16.5907 C   0  0  1  0  0  0  0  0  0  0  0  0
  -30.4309   18.2051  -18.0419 C   0  0  0  0  0  0  0  0  0  0  0  0
  -29.6988   16.9073  -17.9641 N   0  3  0  0  0  0  0  0  0  0  0  0
  -30.0638   16.2187  -18.6335 H   0  0  0  0  0  0  0  0  0  0  0  0
  -28.6942   17.0480  -18.1834 H   0  0  0  0  0  0  0  0  0  0  0  0
  -29.7713   16.3891  -16.5217 C   0  0  1  0  0  0  0  0  0  0  0  0
  -28.3599   16.4703  -15.9013 C   0  0  0  0  0  0  0  0  0  0  0  0
  -28.2629   16.7941  -14.7117 O   0  0  0  0  0  0  0  0  0  0  0  0
  -27.2433   16.2293  -16.6524 N   0  0  0  0  0  0  0  0  0  0  0  0
  -25.9884   16.0483  -16.1455 C   0  0  0  0  0  0  0  0  0  0  0  0
  -25.5798   16.5725  -15.1198 O   0  0  0  0  0  0  0  0  0  0  0  0
  -25.2092   15.2313  -16.8925 N   0  0  0  0  0  0  0  0  0  0  0  0
  -31.7962   19.4174  -16.4540 O   0  0  0  0  0  0  0  0  0  0  0  0
  -27.4291   15.7943  -17.5462 H   0  0  0  0  0  0  0  0  0  0  0  0
  -25.2606   15.2303  -17.9028 H   0  0  0  0  0  0  0  0  0  0  0  0
  -24.2779   15.0619  -16.5231 H   0  0  0  0  0  0  0  0  0  0  0  0
  -31.7280   20.2017  -17.0309 H   0  0  0  0  0  0  0  0  0  0  0  0
  1  2  1  0  0  0  0
  1  7  1  0  0  0  0
  2  3  1  0  0  0  0
  2 14  1  6  0  0  0
  3  4  1  0  0  0  0
  4  5  1  0  0  0  0
  4  6  1  0  0  0  0
  4  7  1  0  0  0  0
  7  8  1  1  0  0  0
  8  9  2  0  0  0  0
  8 10  1  0  0  0  0
 10 11  1  0  0  0  0
 10 15  1  0  0  0  0
 11 12  2  0  0  0  0
 11 13  1  0  0  0  0
 13 16  1  0  0  0  0
 13 17  1  0  0  0  0
 14 18  1  0  0  0  0
M  CHG  1   4   1
M  END
>  <CHROM.0>
-58.24575235,-60.63328365,62.35819403,-43.26096022,59.91784134,-63.19760875
54.64090521,-175.65673969,-169.52867116

>  <CHROM.1>
-172.18210974,27.57247235,-167.91376324,-30.77788333,36.31618942,-28.63358293
17.03421450,-16.42073751,3.11764249,0.46767426,-1.80979587

>  <Name>
P134782687

>  <RI>
0

>  <Rbt.Current_Directory>
/home/fstefaniak/projects/zuza/docking/adenine/4TZX

>  <Rbt.Executable>
rbdock ($Id: //depot/dev/client3/rdock/2013.1/src/exe/rbdock.cxx#4 $)

>  <Rbt.Library>
libRbt.so (2013.1, Build901 2013/11/27)

>  <Rbt.Parameter_File>
/home/fstefaniak/progs/rDock//data/scripts/dock_solv.prm

>  <Rbt.Receptor>
4tzx.prm

>  <SCORE>
-49.3371

>  <SCORE.INTER>
-31.3306

>  <SCORE.INTER.CONST>
1

>  <SCORE.INTER.POLAR>
-5.11526

>  <SCORE.INTER.ROT>
4

>  <SCORE.INTER.SOLV>
25.9018

>  <SCORE.INTER.VDW>
-18.7368

>  <SCORE.INTER.norm>
-2.61089

>  <SCORE.INTRA>
0.247811

>  <SCORE.INTRA.DIHEDRAL>
0.636834

>  <SCORE.INTRA.DIHEDRAL.0>
2.76127

>  <SCORE.INTRA.POLAR>
-0.315935

>  <SCORE.INTRA.POLAR.0>
0

>  <SCORE.INTRA.REPUL>
0

>  <SCORE.INTRA.REPUL.0>
0

>  <SCORE.INTRA.SOLV>
1.22701

>  <SCORE.INTRA.SOLV.lig_0>
-41.0816

>  <SCORE.INTRA.VDW>
0.39007

>  <SCORE.INTRA.VDW.0>
-0.449492

>  <SCORE.INTRA.norm>
0.020651

>  <SCORE.RESTR>
0

>  <SCORE.RESTR.CAVITY>
0

>  <SCORE.RESTR.norm>
0

>  <SCORE.SYSTEM>
-18.2542

>  <SCORE.SYSTEM.CONST>
0

>  <SCORE.SYSTEM.DIHEDRAL>
4.17235

>  <SCORE.SYSTEM.POLAR>
-3.0147

>  <SCORE.SYSTEM.SOLV>
-0.273249

>  <SCORE.SYSTEM.VDW>
-3.4202

>  <SCORE.SYSTEM.norm>
-1.52119

>  <SCORE.heavy>
12

>  <SCORE.norm>
-4.11142

$$$$
P134782778
 OpenBabel12072022113D
libRbt.so/2013.1/901 2013/11/27
 19 19  0  0  0  0  0  0  0  0999 V2000
  -27.1790   12.8964  -16.3337 C   0  0  0  0  0  0  0  0  0  0  0  0
  -26.1325   13.9332  -16.7354 C   0  0  0  0  0  0  0  0  0  0  0  0
  -26.8649   15.2812  -16.8235 C   0  0  1  0  0  0  0  0  0  0  0  0
  -28.0984   15.0791  -15.9104 C   0  0  2  0  0  0  0  0  0  0  0  0
  -28.5013   13.6447  -16.2454 C   0  0  0  0  0  0  0  0  0  0  0  0
  -29.2089   16.0913  -16.1752 C   0  0  0  0  0  0  0  0  0  0  0  0
  -29.0792   16.9377  -17.0680 O   0  0  0  0  0  0  0  0  0  0  0  0
  -30.2954   16.1296  -15.3469 N   0  0  0  0  0  0  0  0  0  0  0  0
  -30.8146   17.3106  -14.8898 C   0  0  0  0  0  0  0  0  0  0  0  0
  -31.6093   18.0232  -15.4829 O   0  0  0  0  0  0  0  0  0  0  0  0
  -30.3535   17.6401  -13.6538 N   0  0  0  0  0  0  0  0  0  0  0  0
  -25.9458   16.4391  -16.4271 C   0  0  0  0  0  0  0  0  0  0  0  0
  -24.6868   16.4066  -17.2028 N   0  3  0  0  0  0  0  0  0  0  0  0
  -24.8274   16.0377  -18.1507 H   0  0  0  0  0  0  0  0  0  0  0  0
  -24.3044   17.3633  -17.3504 H   0  0  0  0  0  0  0  0  0  0  0  0
  -23.9534   15.8511  -16.7483 H   0  0  0  0  0  0  0  0  0  0  0  0
  -31.0335   15.5104  -15.6534 H   0  0  0  0  0  0  0  0  0  0  0  0
  -29.7203   18.4239  -13.5607 H   0  0  0  0  0  0  0  0  0  0  0  0
  -31.0625   17.6028  -12.9273 H   0  0  0  0  0  0  0  0  0  0  0  0
  1  2  1  0  0  0  0
  1  5  1  0  0  0  0
  2  3  1  0  0  0  0
  3 12  1  1  0  0  0
  3  4  1  0  0  0  0
  4  5  1  0  0  0  0
  4  6  1  6  0  0  0
  6  7  2  0  0  0  0
  6  8  1  0  0  0  0
  8  9  1  0  0  0  0
  8 17  1  0  0  0  0
  9 10  2  0  0  0  0
  9 11  1  0  0  0  0
 11 18  1  0  0  0  0
 11 19  1  0  0  0  0
 12 13  1  0  0  0  0
 13 14  1  0  0  0  0
 13 15  1  0  0  0  0
 13 16  1  0  0  0  0
M  CHG  1  13   1
M  END
>  <CHROM.0>
-61.24705842,168.76481162,-70.78282922,-43.55881437,-56.28156359,63.71674301
-168.02533773,-61.44756366,-168.12787082

>  <CHROM.1>
52.88813807,1.66387070,135.88242382,84.04272143,109.96780506,32.73194469
-28.35405739,15.88600218,-16.02566966,0.47891618,-0.34289974,-3.09784807

>  <Name>
P134782778

>  <RI>
0

>  <Rbt.Current_Directory>
/home/fstefaniak/projects/zuza/docking/adenine/4TZX

>  <Rbt.Executable>
rbdock ($Id: //depot/dev/client3/rdock/2013.1/src/exe/rbdock.cxx#4 $)

>  <Rbt.Library>
libRbt.so (2013.1, Build901 2013/11/27)

>  <Rbt.Parameter_File>
/home/fstefaniak/progs/rDock//data/scripts/dock_solv.prm

>  <Rbt.Receptor>
4tzx.prm

>  <SCORE>
-68.1867

>  <SCORE.INTER>
-50.8233

>  <SCORE.INTER.CONST>
1

>  <SCORE.INTER.POLAR>
-8.50121

>  <SCORE.INTER.ROT>
5

>  <SCORE.INTER.SOLV>
26.0578

>  <SCORE.INTER.VDW>
-21.1641

>  <SCORE.INTER.norm>
-3.90948

>  <SCORE.INTRA>
1.32841

>  <SCORE.INTRA.DIHEDRAL>
0.0434498

>  <SCORE.INTRA.DIHEDRAL.0>
3.87105

>  <SCORE.INTRA.POLAR>
0.874571

>  <SCORE.INTRA.POLAR.0>
-0.874571

>  <SCORE.INTRA.REPUL>
0

>  <SCORE.INTRA.REPUL.0>
0

>  <SCORE.INTRA.SOLV>
-2.94435

>  <SCORE.INTRA.SOLV.lig_0>
-36.5463

>  <SCORE.INTRA.VDW>
-0.194678

>  <SCORE.INTRA.VDW.0>
-0.982517

>  <SCORE.INTRA.norm>
0.102185

>  <SCORE.RESTR>
0

>  <SCORE.RESTR.CAVITY>
0

>  <SCORE.RESTR.norm>
0

>  <SCORE.SYSTEM>
-18.6919

>  <SCORE.SYSTEM.CONST>
0

>  <SCORE.SYSTEM.DIHEDRAL>
5.84561

>  <SCORE.SYSTEM.POLAR>
-3.0294

>  <SCORE.SYSTEM.SOLV>
0.0105396

>  <SCORE.SYSTEM.VDW>
-4.31532

>  <SCORE.SYSTEM.norm>
-1.43784

>  <SCORE.heavy>
13

>  <SCORE.norm>
-5.24513

$$$$
P134782778
 OpenBabel12072022113D
libRbt.so/2013.1/901 2013/11/27
 19 19  0  0  0  0  0  0  0  0999 V2000
  -27.1461   12.8977  -16.2731 C   0  0  0  0  0  0  0  0  0  0  0  0
  -26.1044   13.9352  -16.6856 C   0  0  0  0  0  0  0  0  0  0  0  0
  -26.8446   15.2776  -16.7943 C   0  0  1  0  0  0  0  0  0  0  0  0
  -28.0797   15.0805  -15.8823 C   0  0  2  0  0  0  0  0  0  0  0  0
  -28.4730   13.6393  -16.1990 C   0  0  0  0  0  0  0  0  0  0  0  0
  -29.1953   16.0824  -16.1642 C   0  0  0  0  0  0  0  0  0  0  0  0
  -29.0624   16.9257  -17.0595 O   0  0  0  0  0  0  0  0  0  0  0  0
  -30.2913   16.1157  -15.3483 N   0  0  0  0  0  0  0  0  0  0  0  0
  -30.8277   17.2946  -14.9061 C   0  0  0  0  0  0  0  0  0  0  0  0
  -31.6129   18.0010  -15.5191 O   0  0  0  0  0  0  0  0  0  0  0  0
  -30.3970   17.6299  -13.6608 N   0  0  0  0  0  0  0  0  0  0  0  0
  -25.9335   16.4462  -16.4108 C   0  0  0  0  0  0  0  0  0  0  0  0
  -24.6800   16.4213  -17.1956 N   0  3  0  0  0  0  0  0  0  0  0  0
  -23.9911   15.7698  -16.8015 H   0  0  0  0  0  0  0  0  0  0  0  0
  -24.8421   16.0740  -18.1633 H   0  0  0  0  0  0  0  0  0  0  0  0
  -24.2399   17.3452  -17.2723 H   0  0  0  0  0  0  0  0  0  0  0  0
  -31.0194   15.4865  -15.6580 H   0  0  0  0  0  0  0  0  0  0  0  0
  -29.7795   18.4245  -13.5541 H   0  0  0  0  0  0  0  0  0  0  0  0
  -31.1194   17.5789  -12.9485 H   0  0  0  0  0  0  0  0  0  0  0  0
  1  2  1  0  0  0  0
  1  5  1  0  0  0  0
  2  3  1  0  0  0  0
  3 12  1  1  0  0  0
  3  4  1  0  0  0  0
  4  5  1  0  0  0  0
  4  6  1  6  0  0  0
  6  7  2  0  0  0  0
  6  8  1  0  0  0  0
  8  9  1  0  0  0  0
  8 17  1  0  0  0  0
  9 10  2  0  0  0  0
  9 11  1  0  0  0  0
 11 18  1  0  0  0  0
 11 19  1  0  0  0  0
 12 13  1  0  0  0  0
 13 14  1  0  0  0  0
 13 15  1  0  0  0  0
 13 16  1  0  0  0  0
M  CHG  1  13   1
M  END
>  <CHROM.0>
-57.60383957,169.17206370,-173.83447777,-43.38355674,-59.52403424,-62.69042809
-57.44419256,-58.69749838,-167.25082841

>  <CHROM.1>
53.67798183,0.96560305,136.10396387,83.25984906,110.69196966,-81.78292568
-28.34544117,15.88039101,-16.01149357,0.46557034,-0.34366820,-3.12167659

>  <Name>
P134782778

>  <RI>
0

>  <Rbt.Current_Directory>
/home/fstefaniak/projects/zuza/docking/adenine/4TZX

>  <Rbt.Executable>
rbdock ($Id: //depot/dev/client3/rdock/2013.1/src/exe/rbdock.cxx#4 $)

>  <Rbt.Library>
libRbt.so (2013.1, Build901 2013/11/27)

>  <Rbt.Parameter_File>
/home/fstefaniak/progs/rDock//data/scripts/dock_solv.prm

>  <Rbt.Receptor>
4tzx.prm

>  <SCORE>
-67.5394

>  <SCORE.INTER>
-50.7715

>  <SCORE.INTER.CONST>
1

>  <SCORE.INTER.POLAR>
-8.41497

>  <SCORE.INTER.ROT>
5

>  <SCORE.INTER.SOLV>
25.8556

>  <SCORE.INTER.VDW>
-21.3496

>  <SCORE.INTER.norm>
-3.9055

>  <SCORE.INTRA>
1.08491

>  <SCORE.INTRA.DIHEDRAL>
-0.515338

>  <SCORE.INTRA.DIHEDRAL.0>
3.87105

>  <SCORE.INTRA.POLAR>
0.874571

>  <SCORE.INTRA.POLAR.0>
-0.874571

>  <SCORE.INTRA.REPUL>
0

>  <SCORE.INTRA.REPUL.0>
0

>  <SCORE.INTRA.SOLV>
-2.88388

>  <SCORE.INTRA.SOLV.lig_0>
-36.5463

>  <SCORE.INTRA.VDW>
-0.189015

>  <SCORE.INTRA.VDW.0>
-0.982517

>  <SCORE.INTRA.norm>
0.083455

>  <SCORE.RESTR>
0

>  <SCORE.RESTR.CAVITY>
0

>  <SCORE.RESTR.norm>
0

>  <SCORE.SYSTEM>
-17.8528

>  <SCORE.SYSTEM.CONST>
0

>  <SCORE.SYSTEM.DIHEDRAL>
4.8978

>  <SCORE.SYSTEM.POLAR>
-2.54718

>  <SCORE.SYSTEM.SOLV>
0.135491

>  <SCORE.SYSTEM.VDW>
-5.08906

>  <SCORE.SYSTEM.norm>
-1.37329

>  <SCORE.heavy>
13

>  <SCORE.norm>
-5.19534

$$$$
P134782778
 OpenBabel12072022113D
libRbt.so/2013.1/901 2013/11/27
 19 19  0  0  0  0  0  0  0  0999 V2000
  -27.1491   12.8697  -16.5681 C   0  0  0  0  0  0  0  0  0  0  0  0
  -26.0774   13.9017  -16.9117 C   0  0  0  0  0  0  0  0  0  0  0  0
  -26.7554   15.2784  -16.8310 C   0  0  1  0  0  0  0  0  0  0  0  0
  -27.9571   15.0311  -15.8871 C   0  0  2  0  0  0  0  0  0  0  0  0
  -28.4338   13.6545  -16.3449 C   0  0  0  0  0  0  0  0  0  0  0  0
  -29.0340   16.1062  -15.9981 C   0  0  0  0  0  0  0  0  0  0  0  0
  -29.6821   16.4429  -14.9996 O   0  0  0  0  0  0  0  0  0  0  0  0
  -29.3557   16.6115  -17.2266 N   0  0  0  0  0  0  0  0  0  0  0  0
  -30.0539   17.7803  -17.3673 C   0  0  0  0  0  0  0  0  0  0  0  0
  -30.4069   18.5195  -16.4616 O   0  0  0  0  0  0  0  0  0  0  0  0
  -30.3320   18.0694  -18.6664 N   0  0  0  0  0  0  0  0  0  0  0  0
  -25.7725   16.3544  -16.3633 C   0  0  0  0  0  0  0  0  0  0  0  0
  -24.5608   16.3710  -17.2116 N   0  3  0  0  0  0  0  0  0  0  0  0
  -23.8326   15.7405  -16.8560 H   0  0  0  0  0  0  0  0  0  0  0  0
  -24.7616   16.0210  -18.1710 H   0  0  0  0  0  0  0  0  0  0  0  0
  -24.1545   17.3084  -17.3071 H   0  0  0  0  0  0  0  0  0  0  0  0
  -28.5761   16.5822  -17.8696 H   0  0  0  0  0  0  0  0  0  0  0  0
  -31.0827   17.5723  -19.1284 H   0  0  0  0  0  0  0  0  0  0  0  0
  -30.3110   19.0622  -18.8801 H   0  0  0  0  0  0  0  0  0  0  0  0
  1  2  1  0  0  0  0
  1  5  1  0  0  0  0
  2  3  1  0  0  0  0
  3 12  1  1  0  0  0
  3  4  1  0  0  0  0
  4  5  1  0  0  0  0
  4  6  1  6  0  0  0
  6  7  2  0  0  0  0
  6  8  1  0  0  0  0
  8  9  1  0  0  0  0
  8 17  1  0  0  0  0
  9 10  2  0  0  0  0
  9 11  1  0  0  0  0
 11 18  1  0  0  0  0
 11 19  1  0  0  0  0
 12 13  1  0  0  0  0
 13 14  1  0  0  0  0
 13 15  1  0  0  0  0
 13 16  1  0  0  0  0
M  CHG  1  13   1
M  END
>  <CHROM.0>
-59.63427758,-61.12806660,-58.22535872,-43.48633627,-58.07818550,56.53546394
-64.85450799,-65.53632278,-168.99839663

>  <CHROM.1>
53.98876339,-145.90161794,-163.65893685,3.57943066,77.14344599,-89.66753727
-28.10653582,15.97777966,-16.70678711,0.65394252,-0.15868400,2.80998565

>  <Name>
P134782778

>  <RI>
0

>  <Rbt.Current_Directory>
/home/fstefaniak/projects/zuza/docking/adenine/4TZX

>  <Rbt.Executable>
rbdock ($Id: //depot/dev/client3/rdock/2013.1/src/exe/rbdock.cxx#4 $)

>  <Rbt.Library>
libRbt.so (2013.1, Build901 2013/11/27)

>  <Rbt.Parameter_File>
/home/fstefaniak/progs/rDock//data/scripts/dock_solv.prm

>  <Rbt.Receptor>
4tzx.prm

>  <SCORE>
-60.5811

>  <SCORE.INTER>
-43.224

>  <SCORE.INTER.CONST>
1

>  <SCORE.INTER.POLAR>
-6.48371

>  <SCORE.INTER.ROT>
5

>  <SCORE.INTER.SOLV>
26.4196

>  <SCORE.INTER.VDW>
-22.9435

>  <SCORE.INTER.norm>
-3.32492

>  <SCORE.INTRA>
2.54624

>  <SCORE.INTRA.DIHEDRAL>
1.22042

>  <SCORE.INTRA.DIHEDRAL.0>
3.87105

>  <SCORE.INTRA.POLAR>
0.874571

>  <SCORE.INTRA.POLAR.0>
-0.874571

>  <SCORE.INTRA.REPUL>
0

>  <SCORE.INTRA.REPUL.0>
0

>  <SCORE.INTRA.SOLV>
-2.66868

>  <SCORE.INTRA.SOLV.lig_0>
-36.5463

>  <SCORE.INTRA.VDW>
0.296833

>  <SCORE.INTRA.VDW.0>
-0.982517

>  <SCORE.INTRA.norm>
0.195865

>  <SCORE.RESTR>
0

>  <SCORE.RESTR.CAVITY>
0

>  <SCORE.RESTR.norm>
0

>  <SCORE.SYSTEM>
-19.9033

>  <SCORE.SYSTEM.CONST>
0

>  <SCORE.SYSTEM.DIHEDRAL>
4.22365

>  <SCORE.SYSTEM.POLAR>
-3.05656

>  <SCORE.SYSTEM.SOLV>
0.0587221

>  <SCORE.SYSTEM.VDW>
-4.5078

>  <SCORE.SYSTEM.norm>
-1.53102

>  <SCORE.heavy>
13

>  <SCORE.norm>
-4.66008

$$$$
P134836611
 OpenBabel12072022113D
libRbt.so/2013.1/901 2013/11/27
 14 14  0  0  0  0  0  0  0  0999 V2000
  -29.0284   17.5715  -15.5546 C   0  0  0  0  0  0  0  0  0  0  0  0
  -29.6699   18.2533  -16.7720 C   0  0  1  0  0  0  0  0  0  0  0  0
  -29.7278   17.1345  -17.7689 C   0  0  0  0  0  0  0  0  0  0  0  0
  -29.5564   15.9447  -17.1790 C   0  0  0  0  0  0  0  0  0  0  0  0
  -29.3401   16.0735  -15.7066 C   0  0  2  0  0  0  0  0  0  0  0  0
  -30.5695   15.7156  -15.0058 N   0  0  0  0  0  0  0  0  0  0  0  0
  -31.0679   18.8348  -16.5517 C   0  0  0  0  0  0  0  0  0  0  0  0
  -31.6228   18.8161  -15.4501 O   0  0  0  0  0  0  0  0  0  0  0  0
  -31.6559   19.4399  -17.6363 N   0  0  0  0  0  0  0  0  0  0  0  0
  -32.6748   18.6893  -18.2721 O   0  0  0  0  0  0  0  0  0  0  0  0
  -31.0424   14.9792  -15.5350 H   0  0  0  0  0  0  0  0  0  0  0  0
  -31.2083   16.5131  -15.0452 H   0  0  0  0  0  0  0  0  0  0  0  0
  -31.7444   20.4617  -17.6698 H   0  0  0  0  0  0  0  0  0  0  0  0
  -32.8262   19.2049  -19.0945 H   0  0  0  0  0  0  0  0  0  0  0  0
  1  2  1  0  0  0  0
  1  5  1  0  0  0  0
  2  3  1  0  0  0  0
  2  7  1  1  0  0  0
  3  4  2  0  0  0  0
  4  5  1  0  0  0  0
  5  6  1  1  0  0  0
  6 11  1  0  0  0  0
  6 12  1  0  0  0  0
  7  8  2  0  0  0  0
  7  9  1  0  0  0  0
  9 10  1  0  0  0  0
  9 13  1  0  0  0  0
 10 14  1  0  0  0  0
M  END
>  <CHROM.0>
-58.71488910,-56.04207526,-71.58384449,-42.93996393,-49.29530176,-65.78559796
-170.35896889,-171.86784957,-169.59029874

>  <CHROM.1>
3.33309506,145.83412746,104.35218175,-169.37751143,-30.58947125,17.68779231
-16.59727661,0.44135410,-0.86728425,1.58514401

>  <Name>
P134836611

>  <RI>
0

>  <Rbt.Current_Directory>
/home/fstefaniak/projects/zuza/docking/adenine/4TZX

>  <Rbt.Executable>
rbdock ($Id: //depot/dev/client3/rdock/2013.1/src/exe/rbdock.cxx#4 $)

>  <Rbt.Library>
libRbt.so (2013.1, Build901 2013/11/27)

>  <Rbt.Parameter_File>
/home/fstefaniak/progs/rDock//data/scripts/dock_solv.prm

>  <Rbt.Receptor>
4tzx.prm

>  <SCORE>
-52.2802

>  <SCORE.INTER>
-34.225

>  <SCORE.INTER.CONST>
1

>  <SCORE.INTER.POLAR>
-5.78621

>  <SCORE.INTER.ROT>
3

>  <SCORE.INTER.SOLV>
15.9212

>  <SCORE.INTER.VDW>
-14.4364

>  <SCORE.INTER.norm>
-3.4225

>  <SCORE.INTRA>
2.10255

>  <SCORE.INTRA.DIHEDRAL>
-0.261621

>  <SCORE.INTRA.DIHEDRAL.0>
2.89922

>  <SCORE.INTRA.POLAR>
1

>  <SCORE.INTRA.POLAR.0>
-1

>  <SCORE.INTRA.REPUL>
-0.0619539

>  <SCORE.INTRA.REPUL.0>
0.0619539

>  <SCORE.INTRA.SOLV>
-0.822171

>  <SCORE.INTRA.SOLV.lig_0>
-17.3961

>  <SCORE.INTRA.VDW>
-0.445785

>  <SCORE.INTRA.VDW.0>
0.00616269

>  <SCORE.INTRA.norm>
0.210255

>  <SCORE.RESTR>
0

>  <SCORE.RESTR.CAVITY>
0

>  <SCORE.RESTR.norm>
0

>  <SCORE.SYSTEM>
-20.1578

>  <SCORE.SYSTEM.CONST>
0

>  <SCORE.SYSTEM.DIHEDRAL>
5.9549

>  <SCORE.SYSTEM.POLAR>
-3.0568

>  <SCORE.SYSTEM.SOLV>
0.0296108

>  <SCORE.SYSTEM.VDW>
-5.24403

>  <SCORE.SYSTEM.norm>
-2.01578

>  <SCORE.heavy>
10

>  <SCORE.norm>
-5.22802

$$$$
P134836611
 OpenBabel12072022113D
libRbt.so/2013.1/901 2013/11/27
 14 14  0  0  0  0  0  0  0  0999 V2000
  -29.0154   17.5755  -15.6189 C   0  0  0  0  0  0  0  0  0  0  0  0
  -29.6846   18.2261  -16.8385 C   0  0  1  0  0  0  0  0  0  0  0  0
  -29.7536   17.0852  -17.8093 C   0  0  0  0  0  0  0  0  0  0  0  0
  -29.5628   15.9098  -17.1968 C   0  0  0  0  0  0  0  0  0  0  0  0
  -29.3195   16.0725  -15.7320 C   0  0  2  0  0  0  0  0  0  0  0  0
  -30.5328   15.7221  -15.0001 N   0  0  0  0  0  0  0  0  0  0  0  0
  -31.0821   18.8032  -16.6042 C   0  0  0  0  0  0  0  0  0  0  0  0
  -31.6384   18.7554  -15.5043 O   0  0  0  0  0  0  0  0  0  0  0  0
  -31.6680   19.4382  -17.6728 N   0  0  0  0  0  0  0  0  0  0  0  0
  -32.6885   18.7071  -18.3286 O   0  0  0  0  0  0  0  0  0  0  0  0
  -31.0311   14.9992  -15.5246 H   0  0  0  0  0  0  0  0  0  0  0  0
  -31.1614   16.5286  -15.0107 H   0  0  0  0  0  0  0  0  0  0  0  0
  -31.7539   20.4607  -17.6795 H   0  0  0  0  0  0  0  0  0  0  0  0
  -32.8383   19.2447  -19.1371 H   0  0  0  0  0  0  0  0  0  0  0  0
  1  2  1  0  0  0  0
  1  5  1  0  0  0  0
  2  3  1  0  0  0  0
  2  7  1  1  0  0  0
  3  4  2  0  0  0  0
  4  5  1  0  0  0  0
  5  6  1  1  0  0  0
  6 11  1  0  0  0  0
  6 12  1  0  0  0  0
  7  8  2  0  0  0  0
  7  9  1  0  0  0  0
  9 10  1  0  0  0  0
  9 13  1  0  0  0  0
 10 14  1  0  0  0  0
M  END
>  <CHROM.0>
-56.89733968,-63.46482387,-71.25622664,-44.55373748,-57.72955053,-65.39978609
-171.42020781,58.10741646,-168.91239728

>  <CHROM.1>
0.25862791,143.44462002,104.44924628,-169.39077738,-30.59240246,17.67140036
-16.63736277,0.47086620,-0.85192040,1.61464997

>  <Name>
P134836611

>  <RI>
0

>  <Rbt.Current_Directory>
/home/fstefaniak/projects/zuza/docking/adenine/4TZX

>  <Rbt.Executable>
rbdock ($Id: //depot/dev/client3/rdock/2013.1/src/exe/rbdock.cxx#4 $)

>  <Rbt.Library>
libRbt.so (2013.1, Build901 2013/11/27)

>  <Rbt.Parameter_File>
/home/fstefaniak/progs/rDock//data/scripts/dock_solv.prm

>  <Rbt.Receptor>
4tzx.prm

>  <SCORE>
-51.5789

>  <SCORE.INTER>
-34.2316

>  <SCORE.INTER.CONST>
1

>  <SCORE.INTER.POLAR>
-5.80581

>  <SCORE.INTER.ROT>
3

>  <SCORE.INTER.SOLV>
15.8506

>  <SCORE.INTER.VDW>
-14.3519

>  <SCORE.INTER.norm>
-3.42316

>  <SCORE.INTRA>
2.24504

>  <SCORE.INTRA.DIHEDRAL>
-0.122757

>  <SCORE.INTRA.DIHEDRAL.0>
2.89922

>  <SCORE.INTRA.POLAR>
1

>  <SCORE.INTRA.POLAR.0>
-1

>  <SCORE.INTRA.REPUL>
-0.0619539

>  <SCORE.INTRA.REPUL.0>
0.0619539

>  <SCORE.INTRA.SOLV>
-0.839946

>  <SCORE.INTRA.SOLV.lig_0>
-17.3961

>  <SCORE.INTRA.VDW>
-0.363834

>  <SCORE.INTRA.VDW.0>
0.00616269

>  <SCORE.INTRA.norm>
0.224504

>  <SCORE.RESTR>
0

>  <SCORE.RESTR.CAVITY>
0

>  <SCORE.RESTR.norm>
0

>  <SCORE.SYSTEM>
-19.5923

>  <SCORE.SYSTEM.CONST>
0

>  <SCORE.SYSTEM.DIHEDRAL>
4.91516

>  <SCORE.SYSTEM.POLAR>
-3.02079

>  <SCORE.SYSTEM.SOLV>
-0.0185096

>  <SCORE.SYSTEM.VDW>
-4.62445

>  <SCORE.SYSTEM.norm>
-1.95923

>  <SCORE.heavy>
10

>  <SCORE.norm>
-5.15789

$$$$
P134836611
 OpenBabel12072022113D
libRbt.so/2013.1/901 2013/11/27
 14 14  0  0  0  0  0  0  0  0999 V2000
  -29.1918   17.6308  -15.6026 C   0  0  0  0  0  0  0  0  0  0  0  0
  -29.8691   18.1619  -16.8745 C   0  0  1  0  0  0  0  0  0  0  0  0
  -29.7857   16.9812  -17.7954 C   0  0  0  0  0  0  0  0  0  0  0  0
  -29.5074   15.8564  -17.1244 C   0  0  0  0  0  0  0  0  0  0  0  0
  -29.3432   16.1017  -15.6601 C   0  0  2  0  0  0  0  0  0  0  0  0
  -30.5464   15.6628  -14.9600 N   0  0  0  0  0  0  0  0  0  0  0  0
  -31.3248   18.6067  -16.7194 C   0  0  0  0  0  0  0  0  0  0  0  0
  -31.9630   18.4209  -15.6803 O   0  0  0  0  0  0  0  0  0  0  0  0
  -31.8729   19.2847  -17.7816 N   0  0  0  0  0  0  0  0  0  0  0  0
  -32.8660   18.5799  -18.5047 O   0  0  0  0  0  0  0  0  0  0  0  0
  -31.0106   14.9498  -15.5276 H   0  0  0  0  0  0  0  0  0  0  0  0
  -31.2075   16.4425  -14.9330 H   0  0  0  0  0  0  0  0  0  0  0  0
  -31.9620   20.3065  -17.7488 H   0  0  0  0  0  0  0  0  0  0  0  0
  -32.3706   17.7913  -18.8176 H   0  0  0  0  0  0  0  0  0  0  0  0
  1  2  1  0  0  0  0
  1  5  1  0  0  0  0
  2  3  1  0  0  0  0
  2  7  1  1  0  0  0
  3  4  2  0  0  0  0
  4  5  1  0  0  0  0
  5  6  1  1  0  0  0
  6 11  1  0  0  0  0
  6 12  1  0  0  0  0
  7  8  2  0  0  0  0
  7  9  1  0  0  0  0
  9 10  1  0  0  0  0
  9 13  1  0  0  0  0
 10 14  1  0  0  0  0
M  END
>  <CHROM.0>
-59.64767528,-61.45960996,-42.46417162,-42.60474479,-174.38379213,-57.32801063
-61.49947720,-58.34181957,-167.45352114

>  <CHROM.1>
-7.47959371,136.73999002,110.24570604,-60.10189633,-30.72363757,17.55733134
-16.67839061,0.61949958,-0.70671275,1.77272174

>  <Name>
P134836611

>  <RI>
0

>  <Rbt.Current_Directory>
/home/fstefaniak/projects/zuza/docking/adenine/4TZX

>  <Rbt.Executable>
rbdock ($Id: //depot/dev/client3/rdock/2013.1/src/exe/rbdock.cxx#4 $)

>  <Rbt.Library>
libRbt.so (2013.1, Build901 2013/11/27)

>  <Rbt.Parameter_File>
/home/fstefaniak/progs/rDock//data/scripts/dock_solv.prm

>  <Rbt.Receptor>
4tzx.prm

>  <SCORE>
-51.1409

>  <SCORE.INTER>
-33.0047

>  <SCORE.INTER.CONST>
1

>  <SCORE.INTER.POLAR>
-5.45795

>  <SCORE.INTER.ROT>
3

>  <SCORE.INTER.SOLV>
15.4587

>  <SCORE.INTER.VDW>
-14.5629

>  <SCORE.INTER.norm>
-3.30047

>  <SCORE.INTRA>
2.4884

>  <SCORE.INTRA.DIHEDRAL>
0.421329

>  <SCORE.INTRA.DIHEDRAL.0>
2.89922

>  <SCORE.INTRA.POLAR>
0.944213

>  <SCORE.INTRA.POLAR.0>
-1

>  <SCORE.INTRA.REPUL>
-0.0619539

>  <SCORE.INTRA.REPUL.0>
0.0619539

>  <SCORE.INTRA.SOLV>
-0.944749

>  <SCORE.INTRA.SOLV.lig_0>
-17.3961

>  <SCORE.INTRA.VDW>
-0.150445

>  <SCORE.INTRA.VDW.0>
0.00616269

>  <SCORE.INTRA.norm>
0.24884

>  <SCORE.RESTR>
0

>  <SCORE.RESTR.CAVITY>
0

>  <SCORE.RESTR.norm>
0

>  <SCORE.SYSTEM>
-20.6246

>  <SCORE.SYSTEM.CONST>
0

>  <SCORE.SYSTEM.DIHEDRAL>
5.68324

>  <SCORE.SYSTEM.POLAR>
-3.22789

>  <SCORE.SYSTEM.SOLV>
0.0522724

>  <SCORE.SYSTEM.VDW>
-4.90194

>  <SCORE.SYSTEM.norm>
-2.06246

>  <SCORE.heavy>
10

>  <SCORE.norm>
-5.11409

$$$$
P135102317
 OpenBabel12072022113D
libRbt.so/2013.1/901 2013/11/27
 13 13  0  0  0  0  0  0  0  0999 V2000
  -26.3720   15.7094  -16.3959 C   0  0  0  0  0  0  0  0  0  0  0  0
  -26.2898   14.4195  -17.2029 C   0  0  2  0  0  0  0  0  0  0  0  0
  -27.4631   13.4812  -16.9719 C   0  0  2  0  0  0  0  0  0  0  0  0
  -27.0775   12.5885  -15.7902 C   0  0  0  0  0  0  0  0  0  0  0  0
  -25.5888   12.8005  -15.5572 C   0  0  0  0  0  0  0  0  0  0  0  0
  -25.1357   13.6142  -16.7090 N   0  3  0  0  0  0  0  0  0  0  0  0
  -25.0340   12.8953  -17.4881 H   0  0  0  0  0  0  0  0  0  0  0  0
  -24.2273   14.0743  -16.6442 H   0  0  0  0  0  0  0  0  0  0  0  0
  -27.7976   12.7043  -18.2393 C   0  0  0  0  0  0  0  0  0  0  0  0
  -27.7919   13.2989  -19.3219 O   0  0  0  0  0  0  0  0  0  0  0  0
  -28.0778   11.3609  -18.2083 N   0  0  0  0  0  0  0  0  0  0  0  0
  -28.2786   10.6306  -17.0589 O   0  5  0  0  0  0  0  0  0  0  0  0
  -28.3555   10.9165  -19.0818 H   0  0  0  0  0  0  0  0  0  0  0  0
  2  1  1  1  0  0  0
  2  3  1  0  0  0  0
  2  6  1  0  0  0  0
  3  4  1  0  0  0  0
  3  9  1  6  0  0  0
  4  5  1  0  0  0  0
  5  6  1  0  0  0  0
  6  7  1  0  0  0  0
  6  8  1  0  0  0  0
  9 10  2  0  0  0  0
  9 11  1  0  0  0  0
 11 12  1  0  0  0  0
 11 13  1  0  0  0  0
M  CHG  2   6   1  12  -1
M  END
>  <CHROM.0>
-60.68918916,-41.57369134,-64.56625681,-42.65774287,-59.56990497,56.90128561
-67.22717165,-59.30707857,-168.61269441

>  <CHROM.1>
-42.11985188,-26.97858725,13.03296518,-17.16677764,0.38921703,-0.92204476
-0.59491975

>  <Name>
P135102317

>  <RI>
0

>  <Rbt.Current_Directory>
/home/fstefaniak/projects/zuza/docking/adenine/4TZX

>  <Rbt.Executable>
rbdock ($Id: //depot/dev/client3/rdock/2013.1/src/exe/rbdock.cxx#4 $)

>  <Rbt.Library>
libRbt.so (2013.1, Build901 2013/11/27)

>  <Rbt.Parameter_File>
/home/fstefaniak/progs/rDock//data/scripts/dock_solv.prm

>  <Rbt.Receptor>
4tzx.prm

>  <SCORE>
-39.3682

>  <SCORE.INTER>
-21.3186

>  <SCORE.INTER.CONST>
1

>  <SCORE.INTER.POLAR>
-3.02334

>  <SCORE.INTER.ROT>
1

>  <SCORE.INTER.SOLV>
15.8968

>  <SCORE.INTER.VDW>
-13.7002

>  <SCORE.INTER.norm>
-2.13186

>  <SCORE.INTRA>
-0.0447977

>  <SCORE.INTRA.DIHEDRAL>
2.55272

>  <SCORE.INTRA.DIHEDRAL.0>
0.650065

>  <SCORE.INTRA.POLAR>
0

>  <SCORE.INTRA.POLAR.0>
0

>  <SCORE.INTRA.REPUL>
0

>  <SCORE.INTRA.REPUL.0>
0

>  <SCORE.INTRA.SOLV>
-6.67377

>  <SCORE.INTRA.SOLV.lig_0>
-47.7374

>  <SCORE.INTRA.VDW>
2.01573

>  <SCORE.INTRA.VDW.0>
-0.705052

>  <SCORE.INTRA.norm>
-0.00447977

>  <SCORE.RESTR>
0.90138

>  <SCORE.RESTR.CAVITY>
0.90138

>  <SCORE.RESTR.norm>
0.090138

>  <SCORE.SYSTEM>
-18.9062

>  <SCORE.SYSTEM.CONST>
0

>  <SCORE.SYSTEM.DIHEDRAL>
5.93707

>  <SCORE.SYSTEM.POLAR>
-3.05475

>  <SCORE.SYSTEM.SOLV>
0.114339

>  <SCORE.SYSTEM.VDW>
-4.43873

>  <SCORE.SYSTEM.norm>
-1.89062

>  <SCORE.heavy>
10

>  <SCORE.norm>
-3.93682

$$$$
P135102317
 OpenBabel12072022113D
libRbt.so/2013.1/901 2013/11/27
 13 13  0  0  0  0  0  0  0  0999 V2000
  -28.6710   15.5998  -15.6092 C   0  0  0  0  0  0  0  0  0  0  0  0
  -27.9706   15.0222  -16.8330 C   0  0  2  0  0  0  0  0  0  0  0  0
  -27.5774   13.5623  -16.6768 C   0  0  2  0  0  0  0  0  0  0  0  0
  -26.1772   13.5546  -16.0593 C   0  0  0  0  0  0  0  0  0  0  0  0
  -25.6551   14.9807  -16.1564 C   0  0  0  0  0  0  0  0  0  0  0  0
  -26.6482   15.6930  -16.9934 N   0  3  0  0  0  0  0  0  0  0  0  0
  -26.3845   15.4010  -17.9830 H   0  0  0  0  0  0  0  0  0  0  0  0
  -26.6293   16.7131  -16.9974 H   0  0  0  0  0  0  0  0  0  0  0  0
  -27.6597   12.8297  -18.0103 C   0  0  0  0  0  0  0  0  0  0  0  0
  -27.9447   13.4716  -19.0264 O   0  0  0  0  0  0  0  0  0  0  0  0
  -27.4001   11.4856  -18.1114 N   0  0  0  0  0  0  0  0  0  0  0  0
  -27.2390   10.6378  -17.0391 O   0  5  0  0  0  0  0  0  0  0  0  0
  -27.5353   11.0460  -19.0203 H   0  0  0  0  0  0  0  0  0  0  0  0
  2  1  1  1  0  0  0
  2  3  1  0  0  0  0
  2  6  1  0  0  0  0
  3  4  1  0  0  0  0
  3  9  1  6  0  0  0
  4  5  1  0  0  0  0
  5  6  1  0  0  0  0
  6  7  1  0  0  0  0
  6  8  1  0  0  0  0
  9 10  2  0  0  0  0
  9 11  1  0  0  0  0
 11 12  1  0  0  0  0
 11 13  1  0  0  0  0
M  CHG  2   6   1  12  -1
M  END
>  <CHROM.0>
-59.64328157,-47.10998092,-60.90292092,-43.04956263,-56.74218892,-61.44974175
-65.80516724,-63.85013148,-168.98738473

>  <CHROM.1>
3.81632748,-27.29099282,13.67073675,-17.07882546,1.50210371,-0.81864275,0.32005201

>  <Name>
P135102317

>  <RI>
0

>  <Rbt.Current_Directory>
/home/fstefaniak/projects/zuza/docking/adenine/4TZX

>  <Rbt.Executable>
rbdock ($Id: //depot/dev/client3/rdock/2013.1/src/exe/rbdock.cxx#4 $)

>  <Rbt.Library>
libRbt.so (2013.1, Build901 2013/11/27)

>  <Rbt.Parameter_File>
/home/fstefaniak/progs/rDock//data/scripts/dock_solv.prm

>  <Rbt.Receptor>
4tzx.prm

>  <SCORE>
-38.4114

>  <SCORE.INTER>
-15.1247

>  <SCORE.INTER.CONST>
1

>  <SCORE.INTER.POLAR>
-2.94031

>  <SCORE.INTER.ROT>
1

>  <SCORE.INTER.SOLV>
16.6866

>  <SCORE.INTER.VDW>
-10.111

>  <SCORE.INTER.norm>
-1.51247

>  <SCORE.INTRA>
-3.81476

>  <SCORE.INTRA.DIHEDRAL>
-0.0738717

>  <SCORE.INTRA.DIHEDRAL.0>
0.650065

>  <SCORE.INTRA.POLAR>
0

>  <SCORE.INTRA.POLAR.0>
0

>  <SCORE.INTRA.REPUL>
0

>  <SCORE.INTRA.REPUL.0>
0

>  <SCORE.INTRA.SOLV>
-8.68611

>  <SCORE.INTRA.SOLV.lig_0>
-47.7374

>  <SCORE.INTRA.VDW>
0.565228

>  <SCORE.INTRA.VDW.0>
-0.705052

>  <SCORE.INTRA.norm>
-0.381476

>  <SCORE.RESTR>
0.964909

>  <SCORE.RESTR.CAVITY>
0.964909

>  <SCORE.RESTR.norm>
0.0964909

>  <SCORE.SYSTEM>
-20.4368

>  <SCORE.SYSTEM.CONST>
0

>  <SCORE.SYSTEM.DIHEDRAL>
5.00301

>  <SCORE.SYSTEM.POLAR>
-3.0607

>  <SCORE.SYSTEM.SOLV>
0.228654

>  <SCORE.SYSTEM.VDW>
-5.16613

>  <SCORE.SYSTEM.norm>
-2.04368

>  <SCORE.heavy>
10

>  <SCORE.norm>
-3.84114

$$$$
P135102317
 OpenBabel12072022113D
libRbt.so/2013.1/901 2013/11/27
 13 13  0  0  0  0  0  0  0  0999 V2000
  -26.4143   15.6529  -16.3435 C   0  0  0  0  0  0  0  0  0  0  0  0
  -26.3137   14.3848  -17.1823 C   0  0  2  0  0  0  0  0  0  0  0  0
  -27.4937   13.4431  -17.0058 C   0  0  2  0  0  0  0  0  0  0  0  0
  -27.1392   12.5186  -15.8390 C   0  0  0  0  0  0  0  0  0  0  0  0
  -25.6564   12.7213  -15.5631 C   0  0  0  0  0  0  0  0  0  0  0  0
  -25.1734   13.5643  -16.6812 N   0  3  0  0  0  0  0  0  0  0  0  0
  -25.0533   12.8661  -17.4763 H   0  0  0  0  0  0  0  0  0  0  0  0
  -24.2664   14.0206  -16.5814 H   0  0  0  0  0  0  0  0  0  0  0  0
  -27.7974   12.7007  -18.3014 C   0  0  0  0  0  0  0  0  0  0  0  0
  -27.7573   13.3224  -19.3680 O   0  0  0  0  0  0  0  0  0  0  0  0
  -28.0870   11.3591  -18.3123 N   0  0  0  0  0  0  0  0  0  0  0  0
  -28.3249   10.6015  -17.1880 O   0  5  0  0  0  0  0  0  0  0  0  0
  -28.3429   10.9388  -19.2043 H   0  0  0  0  0  0  0  0  0  0  0  0
  2  1  1  1  0  0  0
  2  3  1  0  0  0  0
  2  6  1  0  0  0  0
  3  4  1  0  0  0  0
  3  9  1  6  0  0  0
  4  5  1  0  0  0  0
  5  6  1  0  0  0  0
  6  7  1  0  0  0  0
  6  8  1  0  0  0  0
  9 10  2  0  0  0  0
  9 11  1  0  0  0  0
 11 12  1  0  0  0  0
 11 13  1  0  0  0  0
M  CHG  2   6   1  12  -1
M  END
>  <CHROM.0>
-61.17241989,-41.67528810,60.34985137,-42.72943801,-59.72553016,-64.12033900
54.84158970,-177.82899021,-168.85677324

>  <CHROM.1>
-41.77177730,-27.00666095,12.99962411,-17.20019418,0.35821188,-0.94128705
-0.59514920

>  <Name>
P135102317

>  <RI>
0

>  <Rbt.Current_Directory>
/home/fstefaniak/projects/zuza/docking/adenine/4TZX

>  <Rbt.Executable>
rbdock ($Id: //depot/dev/client3/rdock/2013.1/src/exe/rbdock.cxx#4 $)

>  <Rbt.Library>
libRbt.so (2013.1, Build901 2013/11/27)

>  <Rbt.Parameter_File>
/home/fstefaniak/progs/rDock//data/scripts/dock_solv.prm

>  <Rbt.Receptor>
4tzx.prm

>  <SCORE>
-38.3336

>  <SCORE.INTER>
-21.1654

>  <SCORE.INTER.CONST>
1

>  <SCORE.INTER.POLAR>
-3.00193

>  <SCORE.INTER.ROT>
1

>  <SCORE.INTER.SOLV>
15.8402

>  <SCORE.INTER.VDW>
-13.6506

>  <SCORE.INTER.norm>
-2.11654

>  <SCORE.INTRA>
-0.0965754

>  <SCORE.INTRA.DIHEDRAL>
2.52865

>  <SCORE.INTRA.DIHEDRAL.0>
0.650065

>  <SCORE.INTRA.POLAR>
0

>  <SCORE.INTRA.POLAR.0>
0

>  <SCORE.INTRA.REPUL>
0

>  <SCORE.INTRA.REPUL.0>
0

>  <SCORE.INTRA.SOLV>
-6.70446

>  <SCORE.INTRA.SOLV.lig_0>
-47.7374

>  <SCORE.INTRA.VDW>
1.99133

>  <SCORE.INTRA.VDW.0>
-0.705052

>  <SCORE.INTRA.norm>
-0.00965754

>  <SCORE.RESTR>
0.901331

>  <SCORE.RESTR.CAVITY>
0.901331

>  <SCORE.RESTR.norm>
0.0901331

>  <SCORE.SYSTEM>
-17.973

>  <SCORE.SYSTEM.CONST>
0

>  <SCORE.SYSTEM.DIHEDRAL>
5.73508

>  <SCORE.SYSTEM.POLAR>
-3.02211

>  <SCORE.SYSTEM.SOLV>
-0.00100916

>  <SCORE.SYSTEM.VDW>
-3.81965

>  <SCORE.SYSTEM.norm>
-1.7973

>  <SCORE.heavy>
10

>  <SCORE.norm>
-3.83336

$$$$
P135265592
 OpenBabel12072022113D
libRbt.so/2013.1/901 2013/11/27
 17 17  0  0  0  0  0  0  0  0999 V2000
  -25.3385   12.5033  -15.4059 C   0  0  0  0  0  0  0  0  0  0  0  0
  -26.7510   12.1422  -14.9147 C   0  0  0  0  0  0  0  0  0  0  0  0
  -27.7310   12.6867  -15.9712 C   0  0  2  0  0  0  0  0  0  0  0  0
  -26.8913   12.5251  -17.2442 C   0  0  0  0  0  0  0  0  0  0  0  0
  -25.5157   13.0404  -16.8275 C   0  0  1  0  0  0  0  0  0  0  0  0
  -25.5478   14.5198  -16.7720 N   0  3  0  0  0  0  0  0  0  0  0  0
  -24.6931   14.9194  -16.3354 H   0  0  0  0  0  0  0  0  0  0  0  0
  -25.4490   14.8895  -17.7385 H   0  0  0  0  0  0  0  0  0  0  0  0
  -26.3735   14.9357  -16.3358 H   0  0  0  0  0  0  0  0  0  0  0  0
  -28.0329   14.1019  -15.6438 N   0  0  0  0  0  0  0  0  0  0  0  0
  -28.9849   14.7181  -16.6143 C   0  0  0  0  0  0  0  0  0  0  0  0
  -29.4814   16.0951  -16.1510 C   0  0  0  0  0  0  0  0  0  0  0  0
  -30.1139   16.2860  -15.1109 O   0  0  0  0  0  0  0  0  0  0  0  0
  -29.1634   17.1333  -16.9734 N   0  0  0  0  0  0  0  0  0  0  0  0
  -28.5366   14.0937  -14.7462 H   0  0  0  0  0  0  0  0  0  0  0  0
  -28.7549   17.0119  -17.8925 H   0  0  0  0  0  0  0  0  0  0  0  0
  -29.5104   18.0580  -16.7441 H   0  0  0  0  0  0  0  0  0  0  0  0
  1  2  1  0  0  0  0
  1  5  1  0  0  0  0
  2  3  1  0  0  0  0
  3  4  1  0  0  0  0
  3 10  1  1  0  0  0
  4  5  1  0  0  0  0
  5  6  1  1  0  0  0
  6  7  1  0  0  0  0
  6  8  1  0  0  0  0
  6  9  1  0  0  0  0
 10 11  1  0  0  0  0
 10 15  1  0  0  0  0
 11 12  1  0  0  0  0
 12 13  2  0  0  0  0
 12 14  1  0  0  0  0
 14 16  1  0  0  0  0
 14 17  1  0  0  0  0
M  CHG  1   6   1
M  END
>  <CHROM.0>
-63.72024449,52.31457339,-72.79346800,-42.41194537,179.65741386,-59.66460126
-171.89201712,-59.58634596,-168.78667852

>  <CHROM.1>
-179.76286102,57.39320967,170.34937218,-61.10542375,-27.60101038,14.23425530
-16.15029356,0.67904652,-0.45962448,2.62809463

>  <Name>
P135265592

>  <RI>
0

>  <Rbt.Current_Directory>
/home/fstefaniak/projects/zuza/docking/adenine/4TZX

>  <Rbt.Executable>
rbdock ($Id: //depot/dev/client3/rdock/2013.1/src/exe/rbdock.cxx#4 $)

>  <Rbt.Library>
libRbt.so (2013.1, Build901 2013/11/27)

>  <Rbt.Parameter_File>
/home/fstefaniak/progs/rDock//data/scripts/dock_solv.prm

>  <Rbt.Receptor>
4tzx.prm

>  <SCORE>
-50.5634

>  <SCORE.INTER>
-31.0315

>  <SCORE.INTER.CONST>
1

>  <SCORE.INTER.POLAR>
-4.79626

>  <SCORE.INTER.ROT>
3

>  <SCORE.INTER.SOLV>
15.4193

>  <SCORE.INTER.VDW>
-15.4399

>  <SCORE.INTER.norm>
-2.82104

>  <SCORE.INTRA>
0.342994

>  <SCORE.INTRA.DIHEDRAL>
-1.06284

>  <SCORE.INTRA.DIHEDRAL.0>
2.89237

>  <SCORE.INTRA.POLAR>
0.736011

>  <SCORE.INTRA.POLAR.0>
-1.45607

>  <SCORE.INTRA.REPUL>
0

>  <SCORE.INTRA.REPUL.0>
0

>  <SCORE.INTRA.SOLV>
-3.5046

>  <SCORE.INTRA.SOLV.lig_0>
-28.0551

>  <SCORE.INTRA.VDW>
0.124278

>  <SCORE.INTRA.VDW.0>
-0.741888

>  <SCORE.INTRA.norm>
0.0311812

>  <SCORE.RESTR>
0

>  <SCORE.RESTR.CAVITY>
0

>  <SCORE.RESTR.norm>
0

>  <SCORE.SYSTEM>
-19.8749

>  <SCORE.SYSTEM.CONST>
0

>  <SCORE.SYSTEM.DIHEDRAL>
5.42213

>  <SCORE.SYSTEM.POLAR>
-3.04203

>  <SCORE.SYSTEM.SOLV>
0.0583705

>  <SCORE.SYSTEM.VDW>
-4.93669

>  <SCORE.SYSTEM.norm>
-1.80681

>  <SCORE.heavy>
11

>  <SCORE.norm>
-4.59667

$$$$
P135265592
 OpenBabel12072022113D
libRbt.so/2013.1/901 2013/11/27
 17 17  0  0  0  0  0  0  0  0999 V2000
  -25.1255   12.5168  -15.3126 C   0  0  0  0  0  0  0  0  0  0  0  0
  -26.5166   12.1353  -14.7779 C   0  0  0  0  0  0  0  0  0  0  0  0
  -27.5301   12.5710  -15.8531 C   0  0  2  0  0  0  0  0  0  0  0  0
  -26.7005   12.3577  -17.1251 C   0  0  0  0  0  0  0  0  0  0  0  0
  -25.3411   12.9516  -16.7636 C   0  0  1  0  0  0  0  0  0  0  0  0
  -25.4302   14.4291  -16.8048 N   0  3  0  0  0  0  0  0  0  0  0  0
  -26.1826   14.7988  -16.1900 H   0  0  0  0  0  0  0  0  0  0  0  0
  -24.5948   14.8244  -16.3291 H   0  0  0  0  0  0  0  0  0  0  0  0
  -25.5184   14.8486  -17.7328 H   0  0  0  0  0  0  0  0  0  0  0  0
  -27.8830   13.9922  -15.6148 N   0  0  0  0  0  0  0  0  0  0  0  0
  -28.7490   14.5505  -16.6947 C   0  0  0  0  0  0  0  0  0  0  0  0
  -29.4390   15.8559  -16.2736 C   0  0  0  0  0  0  0  0  0  0  0  0
  -30.1169   15.9791  -15.2520 O   0  0  0  0  0  0  0  0  0  0  0  0
  -29.2445   16.9114  -17.1122 N   0  0  0  0  0  0  0  0  0  0  0  0
  -28.4685   14.0105  -14.7684 H   0  0  0  0  0  0  0  0  0  0  0  0
  -28.8009   16.8289  -18.0192 H   0  0  0  0  0  0  0  0  0  0  0  0
  -29.7193   17.7845  -16.9115 H   0  0  0  0  0  0  0  0  0  0  0  0
  1  2  1  0  0  0  0
  1  5  1  0  0  0  0
  2  3  1  0  0  0  0
  3  4  1  0  0  0  0
  3 10  1  1  0  0  0
  4  5  1  0  0  0  0
  5  6  1  1  0  0  0
  6  7  1  0  0  0  0
  6  8  1  0  0  0  0
  6  9  1  0  0  0  0
 10 11  1  0  0  0  0
 10 15  1  0  0  0  0
 11 12  1  0  0  0  0
 12 13  2  0  0  0  0
 12 14  1  0  0  0  0
 14 16  1  0  0  0  0
 14 17  1  0  0  0  0
M  CHG  1   6   1
M  END
>  <CHROM.0>
-55.69975504,-61.67184727,-68.57150951,-41.60993215,62.41578316,-55.12523359
-67.50370762,-61.95095670,-167.82957543

>  <CHROM.1>
173.81013324,-56.81893189,163.63948196,-53.49027563,-27.47299913,14.09655119
-16.14870423,0.62891193,-0.43838219,2.53319896

>  <Name>
P135265592

>  <RI>
0

>  <Rbt.Current_Directory>
/home/fstefaniak/projects/zuza/docking/adenine/4TZX

>  <Rbt.Executable>
rbdock ($Id: //depot/dev/client3/rdock/2013.1/src/exe/rbdock.cxx#4 $)

>  <Rbt.Library>
libRbt.so (2013.1, Build901 2013/11/27)

>  <Rbt.Parameter_File>
/home/fstefaniak/progs/rDock//data/scripts/dock_solv.prm

>  <Rbt.Receptor>
4tzx.prm

>  <SCORE>
-50.4722

>  <SCORE.INTER>
-31.4737

>  <SCORE.INTER.CONST>
1

>  <SCORE.INTER.POLAR>
-4.88669

>  <SCORE.INTER.ROT>
3

>  <SCORE.INTER.SOLV>
15.1

>  <SCORE.INTER.VDW>
-15.3268

>  <SCORE.INTER.norm>
-2.86124

>  <SCORE.INTRA>
1.09177

>  <SCORE.INTRA.DIHEDRAL>
-0.866897

>  <SCORE.INTRA.DIHEDRAL.0>
2.89237

>  <SCORE.INTRA.POLAR>
0.739207

>  <SCORE.INTRA.POLAR.0>
-1.45607

>  <SCORE.INTRA.REPUL>
0

>  <SCORE.INTRA.REPUL.0>
0

>  <SCORE.INTRA.SOLV>
-3.13459

>  <SCORE.INTRA.SOLV.lig_0>
-28.0551

>  <SCORE.INTRA.VDW>
0.579206

>  <SCORE.INTRA.VDW.0>
-0.741888

>  <SCORE.INTRA.norm>
0.0992514

>  <SCORE.RESTR>
0

>  <SCORE.RESTR.CAVITY>
0

>  <SCORE.RESTR.norm>
0

>  <SCORE.SYSTEM>
-20.0903

>  <SCORE.SYSTEM.CONST>
0

>  <SCORE.SYSTEM.DIHEDRAL>
5.10703

>  <SCORE.SYSTEM.POLAR>
-3.11233

>  <SCORE.SYSTEM.SOLV>
-0.0212348

>  <SCORE.SYSTEM.VDW>
-4.71436

>  <SCORE.SYSTEM.norm>
-1.82639

>  <SCORE.heavy>
11

>  <SCORE.norm>
-4.58838

$$$$
P135265592
 OpenBabel12072022113D
libRbt.so/2013.1/901 2013/11/27
 17 17  0  0  0  0  0  0  0  0999 V2000
  -25.7148   12.8424  -15.7146 C   0  0  0  0  0  0  0  0  0  0  0  0
  -27.1847   12.4741  -15.4494 C   0  0  0  0  0  0  0  0  0  0  0  0
  -28.0291   13.3440  -16.3999 C   0  0  2  0  0  0  0  0  0  0  0  0
  -27.0803   13.4528  -17.5998 C   0  0  0  0  0  0  0  0  0  0  0  0
  -25.7264   13.7388  -16.9544 C   0  0  1  0  0  0  0  0  0  0  0  0
  -25.6870   15.1523  -16.5147 N   0  3  0  0  0  0  0  0  0  0  0  0
  -24.7670   15.4166  -16.1092 H   0  0  0  0  0  0  0  0  0  0  0  0
  -25.6972   15.7613  -17.3570 H   0  0  0  0  0  0  0  0  0  0  0  0
  -26.4313   15.4462  -15.8785 H   0  0  0  0  0  0  0  0  0  0  0  0
  -28.2875   14.6460  -15.7370 N   0  0  0  0  0  0  0  0  0  0  0  0
  -29.1662   15.5340  -16.5538 C   0  0  0  0  0  0  0  0  0  0  0  0
  -29.6899   16.7343  -15.7524 C   0  0  0  0  0  0  0  0  0  0  0  0
  -29.8713   16.7236  -14.5337 O   0  0  0  0  0  0  0  0  0  0  0  0
  -29.9400   17.8556  -16.4841 N   0  0  0  0  0  0  0  0  0  0  0  0
  -28.8330   14.4394  -14.8890 H   0  0  0  0  0  0  0  0  0  0  0  0
  -29.9233   17.8761  -17.4968 H   0  0  0  0  0  0  0  0  0  0  0  0
  -30.3369   18.6624  -16.0155 H   0  0  0  0  0  0  0  0  0  0  0  0
  1  2  1  0  0  0  0
  1  5  1  0  0  0  0
  2  3  1  0  0  0  0
  3  4  1  0  0  0  0
  3 10  1  1  0  0  0
  4  5  1  0  0  0  0
  5  6  1  1  0  0  0
  6  7  1  0  0  0  0
  6  8  1  0  0  0  0
  6  9  1  0  0  0  0
 10 11  1  0  0  0  0
 10 15  1  0  0  0  0
 11 12  1  0  0  0  0
 12 13  2  0  0  0  0
 12 14  1  0  0  0  0
 14 16  1  0  0  0  0
 14 17  1  0  0  0  0
M  CHG  1   6   1
M  END
>  <CHROM.0>
-55.79408437,-61.56386163,-57.57385979,-42.96962914,-172.57116899,-56.12297121
-64.43562600,-54.98028501,-168.11122160

>  <CHROM.1>
-176.84684453,70.29542238,167.17639969,-28.65636461,-27.85942527,14.84427166
-16.13743842,0.68688824,-0.48987025,2.78538319

>  <Name>
P135265592

>  <RI>
0

>  <Rbt.Current_Directory>
/home/fstefaniak/projects/zuza/docking/adenine/4TZX

>  <Rbt.Executable>
rbdock ($Id: //depot/dev/client3/rdock/2013.1/src/exe/rbdock.cxx#4 $)

>  <Rbt.Library>
libRbt.so (2013.1, Build901 2013/11/27)

>  <Rbt.Parameter_File>
/home/fstefaniak/progs/rDock//data/scripts/dock_solv.prm

>  <Rbt.Receptor>
4tzx.prm

>  <SCORE>
-45.8316

>  <SCORE.INTER>
-25.3678

>  <SCORE.INTER.CONST>
1

>  <SCORE.INTER.POLAR>
-2.99918

>  <SCORE.INTER.ROT>
3

>  <SCORE.INTER.SOLV>
14.6314

>  <SCORE.INTER.VDW>
-17.3917

>  <SCORE.INTER.norm>
-2.30616

>  <SCORE.INTRA>
0.408397

>  <SCORE.INTRA.DIHEDRAL>
-1.07308

>  <SCORE.INTRA.DIHEDRAL.0>
2.89237

>  <SCORE.INTRA.POLAR>
0.834358

>  <SCORE.INTRA.POLAR.0>
-1.45607

>  <SCORE.INTRA.REPUL>
0

>  <SCORE.INTRA.REPUL.0>
0

>  <SCORE.INTRA.SOLV>
-3.70462

>  <SCORE.INTRA.SOLV.lig_0>
-28.0551

>  <SCORE.INTRA.VDW>
-0.0395727

>  <SCORE.INTRA.VDW.0>
-0.741888

>  <SCORE.INTRA.norm>
0.037127

>  <SCORE.RESTR>
0

>  <SCORE.RESTR.CAVITY>
0

>  <SCORE.RESTR.norm>
0

>  <SCORE.SYSTEM>
-20.8722

>  <SCORE.SYSTEM.CONST>
0

>  <SCORE.SYSTEM.DIHEDRAL>
4.68359

>  <SCORE.SYSTEM.POLAR>
-3.11801

>  <SCORE.SYSTEM.SOLV>
0.0403242

>  <SCORE.SYSTEM.VDW>
-5.09606

>  <SCORE.SYSTEM.norm>
-1.89747

>  <SCORE.heavy>
11

>  <SCORE.norm>
-4.1665

$$$$
P135289872
 OpenBabel12072022113D
libRbt.so/2013.1/901 2013/11/27
 16 16  0  0  0  0  0  0  0  0999 V2000
  -31.0964   18.4959  -16.0810 C   0  0  0  0  0  0  0  0  0  0  0  0
  -30.1537   17.8249  -17.0791 C   0  0  0  0  0  0  0  0  0  0  0  0
  -29.1110   17.0722  -16.2363 C   0  0  1  0  0  0  0  0  0  0  0  0
  -29.4868   17.3324  -14.7747 C   0  0  0  0  0  0  0  0  0  0  0  0
  -30.9813   17.6313  -14.8317 C   0  0  1  0  0  0  0  0  0  0  0  0
  -31.4935   18.2847  -13.6498 N   0  0  0  0  0  0  0  0  0  0  0  0
  -29.1895   15.6195  -16.5612 N   0  3  0  0  0  0  0  0  0  0  0  0
  -30.1450   15.2268  -16.4217 H   0  0  0  0  0  0  0  0  0  0  0  0
  -29.0126   15.4585  -17.5609 H   0  0  0  0  0  0  0  0  0  0  0  0
  -28.2980   14.6869  -15.7831 C   0  0  0  0  0  0  0  0  0  0  0  0
  -27.8208   13.6160  -16.7810 C   0  0  0  0  0  0  0  0  0  0  0  0
  -26.4879   13.9920  -17.2984 N   0  0  0  0  0  0  0  0  0  0  0  0
  -30.8391   18.9686  -13.2688 H   0  0  0  0  0  0  0  0  0  0  0  0
  -31.6910   17.6229  -12.8995 H   0  0  0  0  0  0  0  0  0  0  0  0
  -26.6104   14.6510  -18.0785 H   0  0  0  0  0  0  0  0  0  0  0  0
  -26.0868   13.1698  -17.7708 H   0  0  0  0  0  0  0  0  0  0  0  0
  1  2  1  0  0  0  0
  1  5  1  0  0  0  0
  2  3  1  0  0  0  0
  3  4  1  0  0  0  0
  3  7  1  6  0  0  0
  4  5  1  0  0  0  0
  5  6  1  1  0  0  0
  6 13  1  0  0  0  0
  6 14  1  0  0  0  0
  7  8  1  0  0  0  0
  7  9  1  0  0  0  0
  7 10  1  0  0  0  0
 10 11  1  0  0  0  0
 11 12  1  0  0  0  0
 12 15  1  0  0  0  0
 12 16  1  0  0  0  0
M  CHG  1   7   1
M  END
>  <CHROM.0>
-61.55497614,-74.64863221,-67.22853078,-41.59852400,-58.89920965,-57.03000625
-65.64459840,-55.74341866,-168.79764821

>  <CHROM.1>
-56.01105333,-78.25414716,-142.27073298,96.54677105,-83.78798051,-29.38859423
16.41783592,-15.91675025,3.07515805,-0.89869807,1.95057320

>  <Name>
P135289872

>  <RI>
0

>  <Rbt.Current_Directory>
/home/fstefaniak/projects/zuza/docking/adenine/4TZX

>  <Rbt.Executable>
rbdock ($Id: //depot/dev/client3/rdock/2013.1/src/exe/rbdock.cxx#4 $)

>  <Rbt.Library>
libRbt.so (2013.1, Build901 2013/11/27)

>  <Rbt.Parameter_File>
/home/fstefaniak/progs/rDock//data/scripts/dock_solv.prm

>  <Rbt.Receptor>
4tzx.prm

>  <SCORE>
-55.0959

>  <SCORE.INTER>
-37.187

>  <SCORE.INTER.CONST>
1

>  <SCORE.INTER.POLAR>
-5.498

>  <SCORE.INTER.ROT>
5

>  <SCORE.INTER.SOLV>
17.838

>  <SCORE.INTER.VDW>
-19.344

>  <SCORE.INTER.norm>
-3.7187

>  <SCORE.INTRA>
2.83035

>  <SCORE.INTRA.DIHEDRAL>
3.49251

>  <SCORE.INTRA.DIHEDRAL.0>
3.82453

>  <SCORE.INTRA.POLAR>
0.500058

>  <SCORE.INTRA.POLAR.0>
-0.500058

>  <SCORE.INTRA.REPUL>
0

>  <SCORE.INTRA.REPUL.0>
0

>  <SCORE.INTRA.SOLV>
-1.8231

>  <SCORE.INTRA.SOLV.lig_0>
-23.9648

>  <SCORE.INTRA.VDW>
0.295445

>  <SCORE.INTRA.VDW.0>
0.63085

>  <SCORE.INTRA.norm>
0.283035

>  <SCORE.RESTR>
0

>  <SCORE.RESTR.CAVITY>
0

>  <SCORE.RESTR.norm>
0

>  <SCORE.SYSTEM>
-20.7393

>  <SCORE.SYSTEM.CONST>
0

>  <SCORE.SYSTEM.DIHEDRAL>
5.68513

>  <SCORE.SYSTEM.POLAR>
-3.07802

>  <SCORE.SYSTEM.SOLV>
0.188761

>  <SCORE.SYSTEM.VDW>
-5.5241

>  <SCORE.SYSTEM.norm>
-2.07393

>  <SCORE.heavy>
10

>  <SCORE.norm>
-5.50959

$$$$
P135289872
 OpenBabel12072022113D
libRbt.so/2013.1/901 2013/11/27
 16 16  0  0  0  0  0  0  0  0999 V2000
  -30.9943   18.5308  -16.0822 C   0  0  0  0  0  0  0  0  0  0  0  0
  -30.1057   17.8209  -17.1028 C   0  0  0  0  0  0  0  0  0  0  0  0
  -29.0796   17.0190  -16.2855 C   0  0  1  0  0  0  0  0  0  0  0  0
  -29.4103   17.2911  -14.8152 C   0  0  0  0  0  0  0  0  0  0  0  0
  -30.8905   17.6578  -14.8378 C   0  0  1  0  0  0  0  0  0  0  0  0
  -31.3458   18.3298  -13.6432 N   0  0  0  0  0  0  0  0  0  0  0  0
  -29.2313   15.5724  -16.6118 N   0  3  0  0  0  0  0  0  0  0  0  0
  -30.1998   15.2226  -16.4500 H   0  0  0  0  0  0  0  0  0  0  0  0
  -29.0861   15.4071  -17.6159 H   0  0  0  0  0  0  0  0  0  0  0  0
  -28.3639   14.5980  -15.8580 C   0  0  0  0  0  0  0  0  0  0  0  0
  -27.9071   13.5456  -16.8847 C   0  0  0  0  0  0  0  0  0  0  0  0
  -26.5836   13.9300  -17.4199 N   0  0  0  0  0  0  0  0  0  0  0  0
  -30.6536   18.9837  -13.2767 H   0  0  0  0  0  0  0  0  0  0  0  0
  -31.5542   17.6754  -12.8894 H   0  0  0  0  0  0  0  0  0  0  0  0
  -26.7200   14.6022  -18.1864 H   0  0  0  0  0  0  0  0  0  0  0  0
  -26.1918   13.1158  -17.9135 H   0  0  0  0  0  0  0  0  0  0  0  0
  1  2  1  0  0  0  0
  1  5  1  0  0  0  0
  2  3  1  0  0  0  0
  3  4  1  0  0  0  0
  3  7  1  1  0  0  0
  4  5  1  0  0  0  0
  5  6  1  1  0  0  0
  6 13  1  0  0  0  0
  6 14  1  0  0  0  0
  7  8  1  0  0  0  0
  7  9  1  0  0  0  0
  7 10  1  0  0  0  0
 10 11  1  0  0  0  0
 11 12  1  0  0  0  0
 12 15  1  0  0  0  0
 12 16  1  0  0  0  0
M  CHG  1   7   1
M  END
>  <CHROM.0>
-59.83225556,-76.47482707,-67.62834209,-43.95236891,61.35544633,-66.82240271
-66.92192094,-60.91688462,-168.58897529

>  <CHROM.1>
-56.12090070,-78.12063208,-139.73933693,94.68758452,-83.91000879,-29.36948582
16.39208532,-15.96387386,3.06444492,-0.93950711,1.95033916

>  <Name>
P135289872

>  <RI>
0

>  <Rbt.Current_Directory>
/home/fstefaniak/projects/zuza/docking/adenine/4TZX

>  <Rbt.Executable>
rbdock ($Id: //depot/dev/client3/rdock/2013.1/src/exe/rbdock.cxx#4 $)

>  <Rbt.Library>
libRbt.so (2013.1, Build901 2013/11/27)

>  <Rbt.Parameter_File>
/home/fstefaniak/progs/rDock//data/scripts/dock_solv.prm

>  <Rbt.Receptor>
4tzx.prm

>  <SCORE>
-54.5159

>  <SCORE.INTER>
-37.4401

>  <SCORE.INTER.CONST>
1

>  <SCORE.INTER.POLAR>
-5.49313

>  <SCORE.INTER.ROT>
5

>  <SCORE.INTER.SOLV>
18.2205

>  <SCORE.INTER.VDW>
-19.6565

>  <SCORE.INTER.norm>
-3.74401

>  <SCORE.INTRA>
2.85056

>  <SCORE.INTRA.DIHEDRAL>
3.43931

>  <SCORE.INTRA.DIHEDRAL.0>
3.82453

>  <SCORE.INTRA.POLAR>
0.500058

>  <SCORE.INTRA.POLAR.0>
-0.500058

>  <SCORE.INTRA.REPUL>
0

>  <SCORE.INTRA.REPUL.0>
0

>  <SCORE.INTRA.SOLV>
-1.79486

>  <SCORE.INTRA.SOLV.lig_0>
-23.9648

>  <SCORE.INTRA.VDW>
0.328142

>  <SCORE.INTRA.VDW.0>
0.63085

>  <SCORE.INTRA.norm>
0.285056

>  <SCORE.RESTR>
0

>  <SCORE.RESTR.CAVITY>
0

>  <SCORE.RESTR.norm>
0

>  <SCORE.SYSTEM>
-19.9263

>  <SCORE.SYSTEM.CONST>
0

>  <SCORE.SYSTEM.DIHEDRAL>
5.79405

>  <SCORE.SYSTEM.POLAR>
-3.0261

>  <SCORE.SYSTEM.SOLV>
-0.0630364

>  <SCORE.SYSTEM.VDW>
-5.10758

>  <SCORE.SYSTEM.norm>
-1.99263

>  <SCORE.heavy>
10

>  <SCORE.norm>
-5.45159

$$$$
P135289872
 OpenBabel12072022113D
libRbt.so/2013.1/901 2013/11/27
 16 16  0  0  0  0  0  0  0  0999 V2000
  -30.9636   18.4780  -16.0724 C   0  0  0  0  0  0  0  0  0  0  0  0
  -30.0276   17.7848  -17.0616 C   0  0  0  0  0  0  0  0  0  0  0  0
  -29.0015   17.0205  -16.2090 C   0  0  1  0  0  0  0  0  0  0  0  0
  -29.3798   17.2965  -14.7509 C   0  0  0  0  0  0  0  0  0  0  0  0
  -30.8688   17.6199  -14.8170 C   0  0  1  0  0  0  0  0  0  0  0  0
  -31.3756   18.2895  -13.6419 N   0  0  0  0  0  0  0  0  0  0  0  0
  -29.1027   15.5672  -16.5248 N   0  3  0  0  0  0  0  0  0  0  0  0
  -30.0414   15.1715  -16.3035 H   0  0  0  0  0  0  0  0  0  0  0  0
  -29.0116   15.4057  -17.5358 H   0  0  0  0  0  0  0  0  0  0  0  0
  -28.1445   14.6384  -15.8253 C   0  0  0  0  0  0  0  0  0  0  0  0
  -26.7374   15.0207  -16.3193 C   0  0  0  0  0  0  0  0  0  0  0  0
  -25.7329   14.1977  -15.6124 N   0  0  0  0  0  0  0  0  0  0  0  0
  -30.7215   18.9820  -13.2762 H   0  0  0  0  0  0  0  0  0  0  0  0
  -31.5650   17.6387  -12.8800 H   0  0  0  0  0  0  0  0  0  0  0  0
  -24.7963   14.5676  -15.8220 H   0  0  0  0  0  0  0  0  0  0  0  0
  -25.7059   13.2725  -16.0633 H   0  0  0  0  0  0  0  0  0  0  0  0
  1  2  1  0  0  0  0
  1  5  1  0  0  0  0
  2  3  1  0  0  0  0
  3  4  1  0  0  0  0
  3  7  1  6  0  0  0
  4  5  1  0  0  0  0
  5  6  1  1  0  0  0
  6 13  1  0  0  0  0
  6 14  1  0  0  0  0
  7  8  1  0  0  0  0
  7  9  1  0  0  0  0
  7 10  1  0  0  0  0
 10 11  1  0  0  0  0
 11 12  1  0  0  0  0
 12 15  1  0  0  0  0
 12 16  1  0  0  0  0
M  CHG  1   7   1
M  END
>  <CHROM.0>
-55.68946016,-61.12290058,-71.98062454,-42.69639377,-59.29831408,60.06940735
-167.46639751,-59.93918452,-168.41945704

>  <CHROM.1>
-61.33816587,-76.78706916,-64.70549677,176.76358071,-170.20529290,-29.10172182
16.54985874,-15.67050863,2.99161054,-0.70645287,1.62090696

>  <Name>
P135289872

>  <RI>
0

>  <Rbt.Current_Directory>
/home/fstefaniak/projects/zuza/docking/adenine/4TZX

>  <Rbt.Executable>
rbdock ($Id: //depot/dev/client3/rdock/2013.1/src/exe/rbdock.cxx#4 $)

>  <Rbt.Library>
libRbt.so (2013.1, Build901 2013/11/27)

>  <Rbt.Parameter_File>
/home/fstefaniak/progs/rDock//data/scripts/dock_solv.prm

>  <Rbt.Receptor>
4tzx.prm

>  <SCORE>
-54.3386

>  <SCORE.INTER>
-33.1488

>  <SCORE.INTER.CONST>
1

>  <SCORE.INTER.POLAR>
-4.83619

>  <SCORE.INTER.ROT>
5

>  <SCORE.INTER.SOLV>
16.4727

>  <SCORE.INTER.VDW>
-18.4028

>  <SCORE.INTER.norm>
-3.31488

>  <SCORE.INTRA>
-1.77558

>  <SCORE.INTRA.DIHEDRAL>
-2.81395

>  <SCORE.INTRA.DIHEDRAL.0>
3.82453

>  <SCORE.INTRA.POLAR>
0.500058

>  <SCORE.INTRA.POLAR.0>
-0.500058

>  <SCORE.INTRA.REPUL>
0

>  <SCORE.INTRA.REPUL.0>
0

>  <SCORE.INTRA.SOLV>
-3.37029

>  <SCORE.INTRA.SOLV.lig_0>
-23.9648

>  <SCORE.INTRA.VDW>
-0.383656

>  <SCORE.INTRA.VDW.0>
0.63085

>  <SCORE.INTRA.norm>
-0.177558

>  <SCORE.RESTR>
0

>  <SCORE.RESTR.CAVITY>
0

>  <SCORE.RESTR.norm>
0

>  <SCORE.SYSTEM>
-19.4143

>  <SCORE.SYSTEM.CONST>
0

>  <SCORE.SYSTEM.DIHEDRAL>
5.47317

>  <SCORE.SYSTEM.POLAR>
-3.06913

>  <SCORE.SYSTEM.SOLV>
0.0324232

>  <SCORE.SYSTEM.VDW>
-4.54759

>  <SCORE.SYSTEM.norm>
-1.94143

>  <SCORE.heavy>
10

>  <SCORE.norm>
-5.43386

$$$$
P135363290
 OpenBabel12072022113D
libRbt.so/2013.1/901 2013/11/27
 17 17  0  0  0  0  0  0  0  0999 V2000
  -26.1637   10.8865  -14.0823 C   0  0  0  0  0  0  0  0  0  0  0  0
  -26.5165   11.0093  -15.4935 N   0  0  0  0  0  0  0  0  0  0  0  0
  -27.7112   11.8199  -15.7225 C   0  0  0  0  0  0  0  0  0  0  0  0
  -27.4517   13.3237  -15.6204 C   0  0  0  0  0  0  0  0  0  0  0  0
  -26.2540   13.7946  -16.4768 C   0  0  0  0  0  0  0  0  0  0  0  0
  -25.0365   12.8768  -16.2344 C   0  0  0  0  0  0  0  0  0  0  0  0
  -25.3920   11.3934  -16.3441 C   0  0  0  0  0  0  0  0  0  0  0  0
  -25.9195   15.2360  -16.0686 C   0  0  0  0  0  0  0  0  0  0  0  0
  -25.0943   15.5080  -15.0798 N   0  3  0  0  0  0  0  0  0  0  0  0
  -24.8831   16.4619  -14.8127 H   0  0  0  0  0  0  0  0  0  0  0  0
  -24.6501   14.7745  -14.5374 H   0  0  0  0  0  0  0  0  0  0  0  0
  -26.5318   16.1699  -16.7662 N   0  0  0  0  0  0  0  0  0  0  0  0
  -26.6299   13.7506  -17.9286 N   0  0  0  0  0  0  0  0  0  0  0  0
  -27.1689   15.8293  -17.4925 H   0  0  0  0  0  0  0  0  0  0  0  0
  -26.4312   17.1628  -16.6176 H   0  0  0  0  0  0  0  0  0  0  0  0
  -26.0551   14.4181  -18.4545 H   0  0  0  0  0  0  0  0  0  0  0  0
  -27.5814   14.1130  -18.0513 H   0  0  0  0  0  0  0  0  0  0  0  0
  1  2  1  0  0  0  0
  2  3  1  0  0  0  0
  2  7  1  0  0  0  0
  3  4  1  0  0  0  0
  4  5  1  0  0  0  0
  5  6  1  0  0  0  0
  5  8  1  0  0  0  0
  5 13  1  0  0  0  0
  6  7  1  0  0  0  0
  8  9  2  0  0  0  0
  8 12  1  0  0  0  0
  9 10  1  0  0  0  0
  9 11  1  0  0  0  0
 12 14  1  0  0  0  0
 12 15  1  0  0  0  0
 13 16  1  0  0  0  0
 13 17  1  0  0  0  0
M  CHG  1   9   1
M  END
>  <CHROM.0>
-57.63423574,-72.83371193,-64.71767754,-43.46358444,56.52474754,-63.14088113
-65.03454688,-62.29396337,-168.36160378

>  <CHROM.1>
87.82211108,154.92125220,-26.24462056,13.28864470,-15.98967521,-1.69883025
-0.94860784,-0.36299667

>  <Name>
P135363290

>  <RI>
0

>  <Rbt.Current_Directory>
/home/fstefaniak/projects/zuza/docking/adenine/4TZX

>  <Rbt.Executable>
rbdock ($Id: //depot/dev/client3/rdock/2013.1/src/exe/rbdock.cxx#4 $)

>  <Rbt.Library>
libRbt.so (2013.1, Build901 2013/11/27)

>  <Rbt.Parameter_File>
/home/fstefaniak/progs/rDock//data/scripts/dock_solv.prm

>  <Rbt.Receptor>
4tzx.prm

>  <SCORE>
-40.3114

>  <SCORE.INTER>
-22.5784

>  <SCORE.INTER.CONST>
1

>  <SCORE.INTER.POLAR>
-4.33886

>  <SCORE.INTER.ROT>
2

>  <SCORE.INTER.SOLV>
16.2137

>  <SCORE.INTER.VDW>
-10.9273

>  <SCORE.INTER.norm>
-2.05258

>  <SCORE.INTRA>
1.66176

>  <SCORE.INTRA.DIHEDRAL>
-0.0833417

>  <SCORE.INTRA.DIHEDRAL.0>
1.90138

>  <SCORE.INTRA.POLAR>
0.276813

>  <SCORE.INTRA.POLAR.0>
-0.276813

>  <SCORE.INTRA.REPUL>
0

>  <SCORE.INTRA.REPUL.0>
0

>  <SCORE.INTRA.SOLV>
0.324646

>  <SCORE.INTRA.SOLV.lig_0>
-29.7492

>  <SCORE.INTRA.VDW>
0.599947

>  <SCORE.INTRA.VDW.0>
-0.359228

>  <SCORE.INTRA.norm>
0.151069

>  <SCORE.RESTR>
0.699156

>  <SCORE.RESTR.CAVITY>
0.699156

>  <SCORE.RESTR.norm>
0.0635596

>  <SCORE.SYSTEM>
-20.0939

>  <SCORE.SYSTEM.CONST>
0

>  <SCORE.SYSTEM.DIHEDRAL>
5.08226

>  <SCORE.SYSTEM.POLAR>
-3.06083

>  <SCORE.SYSTEM.SOLV>
-0.0391115

>  <SCORE.SYSTEM.VDW>
-4.87423

>  <SCORE.SYSTEM.norm>
-1.82672

>  <SCORE.heavy>
11

>  <SCORE.norm>
-3.66467

$$$$
P135363290
 OpenBabel12072022113D
libRbt.so/2013.1/901 2013/11/27
 17 17  0  0  0  0  0  0  0  0999 V2000
  -27.6489   11.3770  -18.8775 C   0  0  0  0  0  0  0  0  0  0  0  0
  -28.2792   11.8477  -17.6478 N   0  0  0  0  0  0  0  0  0  0  0  0
  -28.0571   10.9600  -16.5078 C   0  0  0  0  0  0  0  0  0  0  0  0
  -26.6651   11.1033  -15.8906 C   0  0  0  0  0  0  0  0  0  0  0  0
  -26.2882   12.5681  -15.5717 C   0  0  0  0  0  0  0  0  0  0  0  0
  -26.5879   13.4690  -16.7892 C   0  0  0  0  0  0  0  0  0  0  0  0
  -27.9949   13.2490  -17.3464 C   0  0  0  0  0  0  0  0  0  0  0  0
  -24.7900   12.6086  -15.2397 C   0  0  0  0  0  0  0  0  0  0  0  0
  -23.8655   12.4994  -16.1703 N   0  3  0  0  0  0  0  0  0  0  0  0
  -22.8789   12.5213  -15.9426 H   0  0  0  0  0  0  0  0  0  0  0  0
  -24.1041   12.3740  -17.1485 H   0  0  0  0  0  0  0  0  0  0  0  0
  -24.5052   12.7406  -13.9610 N   0  0  0  0  0  0  0  0  0  0  0  0
  -27.0841   13.0436  -14.3922 N   0  0  0  0  0  0  0  0  0  0  0  0
  -25.3134   12.7896  -13.3335 H   0  0  0  0  0  0  0  0  0  0  0  0
  -23.5731   12.7722  -13.5760 H   0  0  0  0  0  0  0  0  0  0  0  0
  -27.0095   12.3630  -13.6282 H   0  0  0  0  0  0  0  0  0  0  0  0
  -28.0838   13.0307  -14.6209 H   0  0  0  0  0  0  0  0  0  0  0  0
  1  2  1  0  0  0  0
  2  3  1  0  0  0  0
  2  7  1  0  0  0  0
  3  4  1  0  0  0  0
  4  5  1  0  0  0  0
  5  6  1  0  0  0  0
  5  8  1  0  0  0  0
  5 13  1  0  0  0  0
  6  7  1  0  0  0  0
  8  9  2  0  0  0  0
  8 12  1  0  0  0  0
  9 10  1  0  0  0  0
  9 11  1  0  0  0  0
 12 14  1  0  0  0  0
 12 15  1  0  0  0  0
 13 16  1  0  0  0  0
 13 17  1  0  0  0  0
M  CHG  1   9   1
M  END
>  <CHROM.0>
-58.65696091,62.79117171,-65.67255460,-42.27126027,-173.14278700,56.80704215
-66.44055843,-174.91325930,-168.80162122

>  <CHROM.1>
74.44721133,50.10184497,-26.50450772,12.31454875,-16.19780483,-2.38020328
0.06794874,1.35392209

>  <Name>
P135363290

>  <RI>
0

>  <Rbt.Current_Directory>
/home/fstefaniak/projects/zuza/docking/adenine/4TZX

>  <Rbt.Executable>
rbdock ($Id: //depot/dev/client3/rdock/2013.1/src/exe/rbdock.cxx#4 $)

>  <Rbt.Library>
libRbt.so (2013.1, Build901 2013/11/27)

>  <Rbt.Parameter_File>
/home/fstefaniak/progs/rDock//data/scripts/dock_solv.prm

>  <Rbt.Receptor>
4tzx.prm

>  <SCORE>
-40.1368

>  <SCORE.INTER>
-22.9349

>  <SCORE.INTER.CONST>
1

>  <SCORE.INTER.POLAR>
-3.6496

>  <SCORE.INTER.ROT>
2

>  <SCORE.INTER.SOLV>
12.8455

>  <SCORE.INTER.VDW>
-12.3398

>  <SCORE.INTER.norm>
-2.08499

>  <SCORE.INTRA>
1.06339

>  <SCORE.INTRA.DIHEDRAL>
-0.650772

>  <SCORE.INTRA.DIHEDRAL.0>
1.90138

>  <SCORE.INTRA.POLAR>
0.133505

>  <SCORE.INTRA.POLAR.0>
-0.276813

>  <SCORE.INTRA.REPUL>
0

>  <SCORE.INTRA.REPUL.0>
0

>  <SCORE.INTRA.SOLV>
0.130685

>  <SCORE.INTRA.SOLV.lig_0>
-29.7492

>  <SCORE.INTRA.VDW>
0.86952

>  <SCORE.INTRA.VDW.0>
-0.359228

>  <SCORE.INTRA.norm>
0.096672

>  <SCORE.RESTR>
0.960907

>  <SCORE.RESTR.CAVITY>
0.960907

>  <SCORE.RESTR.norm>
0.0873552

>  <SCORE.SYSTEM>
-19.2262

>  <SCORE.SYSTEM.CONST>
0

>  <SCORE.SYSTEM.DIHEDRAL>
4.83235

>  <SCORE.SYSTEM.POLAR>
-3.06722

>  <SCORE.SYSTEM.SOLV>
-0.210227

>  <SCORE.SYSTEM.VDW>
-4.13413

>  <SCORE.SYSTEM.norm>
-1.74784

>  <SCORE.heavy>
11

>  <SCORE.norm>
-3.6488

$$$$
P135363290
 OpenBabel12072022113D
libRbt.so/2013.1/901 2013/11/27
 17 17  0  0  0  0  0  0  0  0999 V2000
  -27.7752   12.6699  -18.1618 C   0  0  0  0  0  0  0  0  0  0  0  0
  -27.2623   12.5947  -16.7971 N   0  0  0  0  0  0  0  0  0  0  0  0
  -25.8051   12.5001  -16.7315 C   0  0  0  0  0  0  0  0  0  0  0  0
  -25.1002   13.8381  -16.9599 C   0  0  0  0  0  0  0  0  0  0  0  0
  -25.6517   14.9765  -16.0715 C   0  0  0  0  0  0  0  0  0  0  0  0
  -27.1940   15.0006  -16.1386 C   0  0  0  0  0  0  0  0  0  0  0  0
  -27.8103   13.6196  -15.9112 C   0  0  0  0  0  0  0  0  0  0  0  0
  -25.0788   16.3018  -16.5926 C   0  0  0  0  0  0  0  0  0  0  0  0
  -24.6756   16.4468  -17.8373 N   0  3  0  0  0  0  0  0  0  0  0  0
  -24.2932   17.3228  -18.1721 H   0  0  0  0  0  0  0  0  0  0  0  0
  -24.7174   15.6838  -18.5048 H   0  0  0  0  0  0  0  0  0  0  0  0
  -25.0054   17.2673  -15.7004 N   0  0  0  0  0  0  0  0  0  0  0  0
  -25.2181   14.7574  -14.6520 N   0  0  0  0  0  0  0  0  0  0  0  0
  -25.3273   17.0215  -14.7595 H   0  0  0  0  0  0  0  0  0  0  0  0
  -24.6433   18.1923  -15.8771 H   0  0  0  0  0  0  0  0  0  0  0  0
  -24.4862   15.4330  -14.4063 H   0  0  0  0  0  0  0  0  0  0  0  0
  -24.7398   13.8538  -14.5714 H   0  0  0  0  0  0  0  0  0  0  0  0
  1  2  1  0  0  0  0
  2  3  1  0  0  0  0
  2  7  1  0  0  0  0
  3  4  1  0  0  0  0
  4  5  1  0  0  0  0
  5  6  1  0  0  0  0
  5  8  1  0  0  0  0
  5 13  1  0  0  0  0
  6  7  1  0  0  0  0
  8  9  2  0  0  0  0
  8 12  1  0  0  0  0
  9 10  1  0  0  0  0
  9 11  1  0  0  0  0
 12 14  1  0  0  0  0
 12 15  1  0  0  0  0
 13 16  1  0  0  0  0
 13 17  1  0  0  0  0
M  CHG  1   9   1
M  END
>  <CHROM.0>
-57.17960573,-62.62767381,-65.32009082,-43.12732447,-56.98485295,-173.87500206
-67.47166959,-176.40110804,-169.44788520

>  <CHROM.1>
24.37042165,106.75343812,-26.02937698,14.56821047,-16.50254462,-2.79571810
0.98829886,1.36916368

>  <Name>
P135363290

>  <RI>
0

>  <Rbt.Current_Directory>
/home/fstefaniak/projects/zuza/docking/adenine/4TZX

>  <Rbt.Executable>
rbdock ($Id: //depot/dev/client3/rdock/2013.1/src/exe/rbdock.cxx#4 $)

>  <Rbt.Library>
libRbt.so (2013.1, Build901 2013/11/27)

>  <Rbt.Parameter_File>
/home/fstefaniak/progs/rDock//data/scripts/dock_solv.prm

>  <Rbt.Receptor>
4tzx.prm

>  <SCORE>
-39.6831

>  <SCORE.INTER>
-22.6357

>  <SCORE.INTER.CONST>
1

>  <SCORE.INTER.POLAR>
-4.43065

>  <SCORE.INTER.ROT>
2

>  <SCORE.INTER.SOLV>
21.8211

>  <SCORE.INTER.VDW>
-12.5287

>  <SCORE.INTER.norm>
-2.05779

>  <SCORE.INTRA>
3.84596

>  <SCORE.INTRA.DIHEDRAL>
1.58029

>  <SCORE.INTRA.DIHEDRAL.0>
1.90138

>  <SCORE.INTRA.POLAR>
0.25298

>  <SCORE.INTRA.POLAR.0>
-0.276813

>  <SCORE.INTRA.REPUL>
0

>  <SCORE.INTRA.REPUL.0>
0

>  <SCORE.INTRA.SOLV>
0.108177

>  <SCORE.INTRA.SOLV.lig_0>
-29.7492

>  <SCORE.INTRA.VDW>
2.1416

>  <SCORE.INTRA.VDW.0>
-0.359228

>  <SCORE.INTRA.norm>
0.349633

>  <SCORE.RESTR>
0

>  <SCORE.RESTR.CAVITY>
0

>  <SCORE.RESTR.norm>
0

>  <SCORE.SYSTEM>
-20.8933

>  <SCORE.SYSTEM.CONST>
0

>  <SCORE.SYSTEM.DIHEDRAL>
4.61436

>  <SCORE.SYSTEM.POLAR>
-3.06168

>  <SCORE.SYSTEM.SOLV>
-0.0576169

>  <SCORE.SYSTEM.VDW>
-5.24217

>  <SCORE.SYSTEM.norm>
-1.89939

>  <SCORE.heavy>
11

>  <SCORE.norm>
-3.60755

$$$$
P135416025
 OpenBabel12072022113D
libRbt.so/2013.1/901 2013/11/27
 14 14  0  0  0  0  0  0  0  0999 V2000
  -27.9738   13.4265  -16.7050 C   0  0  0  0  0  0  0  0  0  0  0  0
  -27.9519   14.9053  -16.4164 C   0  0  0  0  0  0  0  0  0  0  0  0
  -26.9172   15.4629  -16.0535 O   0  0  0  0  0  0  0  0  0  0  0  0
  -29.2746   15.6319  -16.5593 C   0  0  0  0  0  0  0  0  0  0  0  0
  -29.1594   17.1326  -16.2719 C   0  0  2  0  0  0  0  0  0  0  0  0
  -28.9599   17.4509  -14.7815 C   0  0  0  0  0  0  0  0  0  0  0  0
  -30.3773   17.6458  -14.2601 C   0  0  0  0  0  0  0  0  0  0  0  0
  -31.0657   18.3503  -15.4158 C   0  0  0  0  0  0  0  0  0  0  0  0
  -30.4107   17.8278  -16.6054 N   0  0  0  0  0  0  0  0  0  0  0  0
  -30.7208   18.1292  -17.9021 C   0  0  0  0  0  0  0  0  0  0  0  0
  -30.0565   17.7781  -18.8706 O   0  0  0  0  0  0  0  0  0  0  0  0
  -31.8344   18.8790  -18.0842 N   0  0  0  0  0  0  0  0  0  0  0  0
  -32.1057   19.0938  -19.0299 H   0  0  0  0  0  0  0  0  0  0  0  0
  -31.8951   19.6564  -17.4393 H   0  0  0  0  0  0  0  0  0  0  0  0
  1  2  1  0  0  0  0
  2  3  2  0  0  0  0
  2  4  1  0  0  0  0
  5  6  1  0  0  0  0
  5  9  1  0  0  0  0
  5  4  1  1  0  0  0
  6  7  1  0  0  0  0
  7  8  1  0  0  0  0
  8  9  1  0  0  0  0
  9 10  1  0  0  0  0
 10 11  2  0  0  0  0
 10 12  1  0  0  0  0
 12 13  1  0  0  0  0
 12 14  1  0  0  0  0
M  END
>  <CHROM.0>
-57.20317552,-171.78639797,-57.94783654,-42.41325437,-178.14473315,-61.59738781
-59.55163659,-62.92032409,-169.13569444

>  <CHROM.1>
-179.01165956,-72.29986420,-178.13404999,-29.56046660,16.89479534,-16.52349067
-0.04423453,0.86207104,-1.77209020

>  <Name>
P135416025

>  <RI>
0

>  <Rbt.Current_Directory>
/home/fstefaniak/projects/zuza/docking/adenine/4TZX

>  <Rbt.Executable>
rbdock ($Id: //depot/dev/client3/rdock/2013.1/src/exe/rbdock.cxx#4 $)

>  <Rbt.Library>
libRbt.so (2013.1, Build901 2013/11/27)

>  <Rbt.Parameter_File>
/home/fstefaniak/progs/rDock//data/scripts/dock_solv.prm

>  <Rbt.Receptor>
4tzx.prm

>  <SCORE>
-45.2507

>  <SCORE.INTER>
-24.6568

>  <SCORE.INTER.CONST>
1

>  <SCORE.INTER.POLAR>
-2.89779

>  <SCORE.INTER.ROT>
3

>  <SCORE.INTER.SOLV>
12.1343

>  <SCORE.INTER.VDW>
-16.4233

>  <SCORE.INTER.norm>
-2.05473

>  <SCORE.INTRA>
0.120768

>  <SCORE.INTRA.DIHEDRAL>
-0.0532607

>  <SCORE.INTRA.DIHEDRAL.0>
2.19418

>  <SCORE.INTRA.POLAR>
0

>  <SCORE.INTRA.POLAR.0>
0

>  <SCORE.INTRA.REPUL>
0

>  <SCORE.INTRA.REPUL.0>
0

>  <SCORE.INTRA.SOLV>
0.00119013

>  <SCORE.INTRA.SOLV.lig_0>
-13.9362

>  <SCORE.INTRA.VDW>
0.146803

>  <SCORE.INTRA.VDW.0>
-0.392096

>  <SCORE.INTRA.norm>
0.010064

>  <SCORE.RESTR>
0

>  <SCORE.RESTR.CAVITY>
0

>  <SCORE.RESTR.norm>
0

>  <SCORE.SYSTEM>
-20.7147

>  <SCORE.SYSTEM.CONST>
0

>  <SCORE.SYSTEM.DIHEDRAL>
4.46946

>  <SCORE.SYSTEM.POLAR>
-3.084

>  <SCORE.SYSTEM.SOLV>
-0.00111722

>  <SCORE.SYSTEM.VDW>
-5.01923

>  <SCORE.SYSTEM.norm>
-1.72622

>  <SCORE.heavy>
12

>  <SCORE.norm>
-3.77089

$$$$
P135416025
 OpenBabel12072022113D
libRbt.so/2013.1/901 2013/11/27
 14 14  0  0  0  0  0  0  0  0999 V2000
  -28.1042   13.3783  -16.5825 C   0  0  0  0  0  0  0  0  0  0  0  0
  -28.0403   14.8772  -16.4416 C   0  0  0  0  0  0  0  0  0  0  0  0
  -26.9897   15.4387  -16.1348 O   0  0  0  0  0  0  0  0  0  0  0  0
  -29.3423   15.6230  -16.6571 C   0  0  0  0  0  0  0  0  0  0  0  0
  -29.2220   17.1215  -16.3605 C   0  0  2  0  0  0  0  0  0  0  0  0
  -29.0223   17.4302  -14.8682 C   0  0  0  0  0  0  0  0  0  0  0  0
  -30.4393   17.6269  -14.3464 C   0  0  0  0  0  0  0  0  0  0  0  0
  -31.1246   18.3409  -15.4983 C   0  0  0  0  0  0  0  0  0  0  0  0
  -30.4706   17.8232  -16.6906 N   0  0  0  0  0  0  0  0  0  0  0  0
  -30.7789   18.1335  -17.9857 C   0  0  0  0  0  0  0  0  0  0  0  0
  -30.1153   17.7859  -18.9559 O   0  0  0  0  0  0  0  0  0  0  0  0
  -31.8897   18.8883  -18.1638 N   0  0  0  0  0  0  0  0  0  0  0  0
  -32.1095   19.1855  -19.1006 H   0  0  0  0  0  0  0  0  0  0  0  0
  -31.9967   19.6039  -17.4565 H   0  0  0  0  0  0  0  0  0  0  0  0
  1  2  1  0  0  0  0
  2  3  2  0  0  0  0
  2  4  1  0  0  0  0
  5  6  1  0  0  0  0
  5  9  1  0  0  0  0
  5  4  1  1  0  0  0
  6  7  1  0  0  0  0
  7  8  1  0  0  0  0
  8  9  1  0  0  0  0
  9 10  1  0  0  0  0
 10 11  2  0  0  0  0
 10 12  1  0  0  0  0
 12 13  1  0  0  0  0
 12 14  1  0  0  0  0
M  END
>  <CHROM.0>
-60.40321343,-168.42112045,-73.11217974,-43.52572149,-54.91000188,-66.40633639
-173.48379451,-63.97017857,-167.22850904

>  <CHROM.1>
174.31716215,-69.04621532,176.00094856,-29.63024070,16.88234830,-16.58597072
-0.08341235,0.87495705,-1.75260977

>  <Name>
P135416025

>  <RI>
0

>  <Rbt.Current_Directory>
/home/fstefaniak/projects/zuza/docking/adenine/4TZX

>  <Rbt.Executable>
rbdock ($Id: //depot/dev/client3/rdock/2013.1/src/exe/rbdock.cxx#4 $)

>  <Rbt.Library>
libRbt.so (2013.1, Build901 2013/11/27)

>  <Rbt.Parameter_File>
/home/fstefaniak/progs/rDock//data/scripts/dock_solv.prm

>  <Rbt.Receptor>
4tzx.prm

>  <SCORE>
-44.8177

>  <SCORE.INTER>
-24.8512

>  <SCORE.INTER.CONST>
1

>  <SCORE.INTER.POLAR>
-2.96806

>  <SCORE.INTER.ROT>
3

>  <SCORE.INTER.SOLV>
12.2561

>  <SCORE.INTER.VDW>
-16.3593

>  <SCORE.INTER.norm>
-2.07093

>  <SCORE.INTRA>
0.220694

>  <SCORE.INTRA.DIHEDRAL>
-0.256711

>  <SCORE.INTRA.DIHEDRAL.0>
2.19418

>  <SCORE.INTRA.POLAR>
0

>  <SCORE.INTRA.POLAR.0>
0

>  <SCORE.INTRA.REPUL>
0

>  <SCORE.INTRA.REPUL.0>
0

>  <SCORE.INTRA.SOLV>
-0.000758623

>  <SCORE.INTRA.SOLV.lig_0>
-13.9362

>  <SCORE.INTRA.VDW>
0.349429

>  <SCORE.INTRA.VDW.0>
-0.392096

>  <SCORE.INTRA.norm>
0.0183912

>  <SCORE.RESTR>
0

>  <SCORE.RESTR.CAVITY>
0

>  <SCORE.RESTR.norm>
0

>  <SCORE.SYSTEM>
-20.1872

>  <SCORE.SYSTEM.CONST>
0

>  <SCORE.SYSTEM.DIHEDRAL>
6.00845

>  <SCORE.SYSTEM.POLAR>
-3.02548

>  <SCORE.SYSTEM.SOLV>
0.10091

>  <SCORE.SYSTEM.VDW>
-5.40966

>  <SCORE.SYSTEM.norm>
-1.68227

>  <SCORE.heavy>
12

>  <SCORE.norm>
-3.73481

$$$$
P135416025
 OpenBabel12072022113D
libRbt.so/2013.1/901 2013/11/27
 14 14  0  0  0  0  0  0  0  0999 V2000
  -28.0267   13.4015  -16.6599 C   0  0  0  0  0  0  0  0  0  0  0  0
  -27.9982   14.8913  -16.4357 C   0  0  0  0  0  0  0  0  0  0  0  0
  -26.9583   15.4611  -16.1083 O   0  0  0  0  0  0  0  0  0  0  0  0
  -29.3205   15.6150  -16.5959 C   0  0  0  0  0  0  0  0  0  0  0  0
  -29.2158   17.1132  -16.2919 C   0  0  2  0  0  0  0  0  0  0  0  0
  -29.0314   17.4171  -14.7967 C   0  0  0  0  0  0  0  0  0  0  0  0
  -30.4544   17.5992  -14.2860 C   0  0  0  0  0  0  0  0  0  0  0  0
  -31.1362   18.3121  -15.4406 C   0  0  0  0  0  0  0  0  0  0  0  0
  -30.4677   17.8053  -16.6295 N   0  0  0  0  0  0  0  0  0  0  0  0
  -30.7678   18.1185  -17.9259 C   0  0  0  0  0  0  0  0  0  0  0  0
  -30.0930   17.7809  -18.8919 O   0  0  0  0  0  0  0  0  0  0  0  0
  -31.8837   18.8643  -18.1102 N   0  0  0  0  0  0  0  0  0  0  0  0
  -32.1288   19.1163  -19.0539 H   0  0  0  0  0  0  0  0  0  0  0  0
  -31.9723   19.6132  -17.4354 H   0  0  0  0  0  0  0  0  0  0  0  0
  1  2  1  0  0  0  0
  2  3  2  0  0  0  0
  2  4  1  0  0  0  0
  5  6  1  0  0  0  0
  5  9  1  0  0  0  0
  5  4  1  1  0  0  0
  6  7  1  0  0  0  0
  7  8  1  0  0  0  0
  8  9  1  0  0  0  0
  9 10  1  0  0  0  0
 10 11  2  0  0  0  0
 10 12  1  0  0  0  0
 12 13  1  0  0  0  0
 12 14  1  0  0  0  0
M  END
>  <CHROM.0>
-63.35928249,-168.44679861,-71.34789599,-42.95455745,-55.70659541,-57.55806205
-169.86222329,-176.98980250,-169.38684320

>  <CHROM.1>
177.51271277,-71.75397260,179.65519864,-29.61451874,16.87512103,-16.54391440
-0.07339651,0.86074572,-1.74034172

>  <Name>
P135416025

>  <RI>
0

>  <Rbt.Current_Directory>
/home/fstefaniak/projects/zuza/docking/adenine/4TZX

>  <Rbt.Executable>
rbdock ($Id: //depot/dev/client3/rdock/2013.1/src/exe/rbdock.cxx#4 $)

>  <Rbt.Library>
libRbt.so (2013.1, Build901 2013/11/27)

>  <Rbt.Parameter_File>
/home/fstefaniak/progs/rDock//data/scripts/dock_solv.prm

>  <Rbt.Receptor>
4tzx.prm

>  <SCORE>
-44.7894

>  <SCORE.INTER>
-24.7889

>  <SCORE.INTER.CONST>
1

>  <SCORE.INTER.POLAR>
-2.94592

>  <SCORE.INTER.ROT>
3

>  <SCORE.INTER.SOLV>
12.1684

>  <SCORE.INTER.VDW>
-16.3623

>  <SCORE.INTER.norm>
-2.06574

>  <SCORE.INTRA>
0.155759

>  <SCORE.INTRA.DIHEDRAL>
-0.0939846

>  <SCORE.INTRA.DIHEDRAL.0>
2.19418

>  <SCORE.INTRA.POLAR>
0

>  <SCORE.INTRA.POLAR.0>
0

>  <SCORE.INTRA.REPUL>
0

>  <SCORE.INTRA.REPUL.0>
0

>  <SCORE.INTRA.SOLV>
-0.00290818

>  <SCORE.INTRA.SOLV.lig_0>
-13.9362

>  <SCORE.INTRA.VDW>
0.204206

>  <SCORE.INTRA.VDW.0>
-0.392096

>  <SCORE.INTRA.norm>
0.0129799

>  <SCORE.RESTR>
0

>  <SCORE.RESTR.CAVITY>
0

>  <SCORE.RESTR.norm>
0

>  <SCORE.SYSTEM>
-20.1563

>  <SCORE.SYSTEM.CONST>
0

>  <SCORE.SYSTEM.DIHEDRAL>
5.783

>  <SCORE.SYSTEM.POLAR>
-3.0232

>  <SCORE.SYSTEM.SOLV>
-0.00576574

>  <SCORE.SYSTEM.VDW>
-5.28595

>  <SCORE.SYSTEM.norm>
-1.67969

>  <SCORE.heavy>
12

>  <SCORE.norm>
-3.73245

$$$$
P135625956
 OpenBabel12072022113D
libRbt.so/2013.1/901 2013/11/27
 17 18  0  0  0  0  0  0  0  0999 V2000
  -30.0119   16.9000  -15.2394 C   0  0  0  0  0  0  0  0  0  0  0  0
  -30.5531   18.3317  -15.3341 C   0  0  0  0  0  0  0  0  0  0  0  0
  -30.8661   18.5641  -16.8142 C   0  0  1  0  0  0  0  0  0  0  0  0
  -29.8346   17.6706  -17.5183 C   0  0  0  0  0  0  0  0  0  0  0  0
  -29.8419   16.3794  -16.6829 C   0  0  1  0  0  0  0  0  0  0  0  0
  -28.6503   15.5305  -16.8562 N   0  0  0  0  0  0  0  0  0  0  0  0
  -28.8069   14.2164  -16.1874 C   0  0  0  0  0  0  0  0  0  0  0  0
  -27.5360   13.3589  -16.3075 C   0  0  0  0  0  0  0  0  0  0  0  0
  -26.3982   14.0330  -15.7572 O   0  0  0  0  0  0  0  0  0  0  0  0
  -26.1985   15.2787  -16.4349 C   0  0  0  0  0  0  0  0  0  0  0  0
  -27.4351   16.1830  -16.3103 C   0  0  0  0  0  0  0  0  0  0  0  0
  -32.3260   18.1676  -17.1536 C   0  0  0  0  0  0  0  0  0  0  0  0
  -32.6554   18.6266  -18.4644 O   0  0  0  0  0  0  0  0  0  0  0  0
  -30.6881   19.9711  -17.2185 N   0  0  0  0  0  0  0  0  0  0  0  0
  -32.2606   17.9549  -19.0598 H   0  0  0  0  0  0  0  0  0  0  0  0
  -31.5190   20.5064  -16.9604 H   0  0  0  0  0  0  0  0  0  0  0  0
  -30.6353   20.0275  -18.2372 H   0  0  0  0  0  0  0  0  0  0  0  0
  1  2  1  0  0  0  0
  2  3  1  0  0  0  0
  3  4  1  0  0  0  0
  3 14  1  0  0  0  0
  3 12  1  6  0  0  0
  4  5  1  0  0  0  0
  5  1  1  1  0  0  0
  5  6  1  0  0  0  0
  6  7  1  0  0  0  0
  6 11  1  0  0  0  0
  7  8  1  0  0  0  0
  8  9  1  0  0  0  0
  9 10  1  0  0  0  0
 10 11  1  0  0  0  0
 12 13  1  0  0  0  0
 13 15  1  0  0  0  0
 14 16  1  0  0  0  0
 14 17  1  0  0  0  0
M  END
>  <CHROM.0>
-58.15888276,-65.12759286,-66.88534935,-42.03524942,-56.33943581,-57.43216885
-68.17185706,-54.60314029,-168.43509712

>  <CHROM.1>
-81.64558289,169.22909608,70.78289378,80.35312718,-29.43088637,16.67635730
-16.62136462,-2.41778680,0.35910939,-3.02156009

>  <Name>
P135625956

>  <RI>
0

>  <Rbt.Current_Directory>
/home/fstefaniak/projects/zuza/docking/adenine/4TZX

>  <Rbt.Executable>
rbdock ($Id: //depot/dev/client3/rdock/2013.1/src/exe/rbdock.cxx#4 $)

>  <Rbt.Library>
libRbt.so (2013.1, Build901 2013/11/27)

>  <Rbt.Parameter_File>
/home/fstefaniak/progs/rDock//data/scripts/dock_solv.prm

>  <Rbt.Receptor>
4tzx.prm

>  <SCORE>
-41.899

>  <SCORE.INTER>
-23.4274

>  <SCORE.INTER.CONST>
1

>  <SCORE.INTER.POLAR>
-3.26565

>  <SCORE.INTER.ROT>
3

>  <SCORE.INTER.SOLV>
14.5269

>  <SCORE.INTER.VDW>
-15.175

>  <SCORE.INTER.norm>
-1.67338

>  <SCORE.INTRA>
2.50665

>  <SCORE.INTRA.DIHEDRAL>
0.251347

>  <SCORE.INTRA.DIHEDRAL.0>
2.84206

>  <SCORE.INTRA.POLAR>
0.376643

>  <SCORE.INTRA.POLAR.0>
-0.376643

>  <SCORE.INTRA.REPUL>
0

>  <SCORE.INTRA.REPUL.0>
0

>  <SCORE.INTRA.SOLV>
0.244978

>  <SCORE.INTRA.SOLV.lig_0>
-13.7969

>  <SCORE.INTRA.VDW>
0.977904

>  <SCORE.INTRA.VDW.0>
1.30305

>  <SCORE.INTRA.norm>
0.179046

>  <SCORE.RESTR>
0

>  <SCORE.RESTR.CAVITY>
0

>  <SCORE.RESTR.norm>
0

>  <SCORE.SYSTEM>
-20.9782

>  <SCORE.SYSTEM.CONST>
0

>  <SCORE.SYSTEM.DIHEDRAL>
5.02728

>  <SCORE.SYSTEM.POLAR>
-3.09815

>  <SCORE.SYSTEM.SOLV>
0.199692

>  <SCORE.SYSTEM.VDW>
-5.40065

>  <SCORE.SYSTEM.norm>
-1.49845

>  <SCORE.heavy>
14

>  <SCORE.norm>
-2.99278

$$$$
P135625956
 OpenBabel12072022113D
libRbt.so/2013.1/901 2013/11/27
 17 18  0  0  0  0  0  0  0  0999 V2000
  -29.9835   16.9004  -15.2558 C   0  0  0  0  0  0  0  0  0  0  0  0
  -30.5262   18.3298  -15.3740 C   0  0  0  0  0  0  0  0  0  0  0  0
  -30.8558   18.5316  -16.8551 C   0  0  1  0  0  0  0  0  0  0  0  0
  -29.8319   17.6237  -17.5520 C   0  0  0  0  0  0  0  0  0  0  0  0
  -29.8296   16.3501  -16.6901 C   0  0  1  0  0  0  0  0  0  0  0  0
  -28.6398   15.4978  -16.8591 N   0  0  0  0  0  0  0  0  0  0  0  0
  -28.8226   14.1649  -16.2357 C   0  0  0  0  0  0  0  0  0  0  0  0
  -27.5550   13.3019  -16.3498 C   0  0  0  0  0  0  0  0  0  0  0  0
  -26.4271   13.9499  -15.7499 O   0  0  0  0  0  0  0  0  0  0  0  0
  -26.2015   15.2143  -16.3832 C   0  0  0  0  0  0  0  0  0  0  0  0
  -27.4346   16.1238  -16.2623 C   0  0  0  0  0  0  0  0  0  0  0  0
  -32.3193   18.1280  -17.1698 C   0  0  0  0  0  0  0  0  0  0  0  0
  -32.6677   18.5715  -18.4811 O   0  0  0  0  0  0  0  0  0  0  0  0
  -30.6826   19.9299  -17.2903 N   0  0  0  0  0  0  0  0  0  0  0  0
  -32.2363   17.9223  -19.0761 H   0  0  0  0  0  0  0  0  0  0  0  0
  -31.4709   20.4889  -16.9588 H   0  0  0  0  0  0  0  0  0  0  0  0
  -30.7278   19.9761  -18.3099 H   0  0  0  0  0  0  0  0  0  0  0  0
  1  2  1  0  0  0  0
  2  3  1  0  0  0  0
  3  4  1  0  0  0  0
  3 14  1  0  0  0  0
  3 12  1  6  0  0  0
  4  5  1  0  0  0  0
  5  1  1  1  0  0  0
  5  6  1  0  0  0  0
  6  7  1  0  0  0  0
  6 11  1  0  0  0  0
  7  8  1  0  0  0  0
  8  9  1  0  0  0  0
  9 10  1  0  0  0  0
 10 11  1  0  0  0  0
 12 13  1  0  0  0  0
 13 15  1  0  0  0  0
 14 16  1  0  0  0  0
 14 17  1  0  0  0  0
M  END
>  <CHROM.0>
-59.31833114,-61.61314767,-62.42400508,-41.38251541,-52.18301945,-55.71068554
-65.85193217,-173.98476026,-167.68159936

>  <CHROM.1>
-76.45967668,168.65926156,74.44518638,77.23304636,-29.42981867,16.63335992
-16.63749670,-2.42693877,0.39399270,-2.98985097

>  <Name>
P135625956

>  <RI>
0

>  <Rbt.Current_Directory>
/home/fstefaniak/projects/zuza/docking/adenine/4TZX

>  <Rbt.Executable>
rbdock ($Id: //depot/dev/client3/rdock/2013.1/src/exe/rbdock.cxx#4 $)

>  <Rbt.Library>
libRbt.so (2013.1, Build901 2013/11/27)

>  <Rbt.Parameter_File>
/home/fstefaniak/progs/rDock//data/scripts/dock_solv.prm

>  <Rbt.Receptor>
4tzx.prm

>  <SCORE>
-41.8534

>  <SCORE.INTER>
-23.2685

>  <SCORE.INTER.CONST>
1

>  <SCORE.INTER.POLAR>
-3.28229

>  <SCORE.INTER.ROT>
3

>  <SCORE.INTER.SOLV>
14.3827

>  <SCORE.INTER.VDW>
-14.9656

>  <SCORE.INTER.norm>
-1.66204

>  <SCORE.INTRA>
2.24703

>  <SCORE.INTRA.DIHEDRAL>
-0.260427

>  <SCORE.INTRA.DIHEDRAL.0>
2.84206

>  <SCORE.INTRA.POLAR>
0.376643

>  <SCORE.INTRA.POLAR.0>
-0.376643

>  <SCORE.INTRA.REPUL>
0

>  <SCORE.INTRA.REPUL.0>
0

>  <SCORE.INTRA.SOLV>
0.242341

>  <SCORE.INTRA.SOLV.lig_0>
-13.7969

>  <SCORE.INTRA.VDW>
0.975491

>  <SCORE.INTRA.VDW.0>
1.30305

>  <SCORE.INTRA.norm>
0.160502

>  <SCORE.RESTR>
0

>  <SCORE.RESTR.CAVITY>
0

>  <SCORE.RESTR.norm>
0

>  <SCORE.SYSTEM>
-20.8319

>  <SCORE.SYSTEM.CONST>
0

>  <SCORE.SYSTEM.DIHEDRAL>
5.03977

>  <SCORE.SYSTEM.POLAR>
-3.11192

>  <SCORE.SYSTEM.SOLV>
0.0806527

>  <SCORE.SYSTEM.VDW>
-5.22168

>  <SCORE.SYSTEM.norm>
-1.48799

>  <SCORE.heavy>
14

>  <SCORE.norm>
-2.98953

$$$$
P135625956
 OpenBabel12072022113D
libRbt.so/2013.1/901 2013/11/27
 17 18  0  0  0  0  0  0  0  0999 V2000
  -29.9630   16.9971  -15.3037 C   0  0  0  0  0  0  0  0  0  0  0  0
  -30.5347   18.4089  -15.4813 C   0  0  0  0  0  0  0  0  0  0  0  0
  -30.9095   18.5261  -16.9607 C   0  0  1  0  0  0  0  0  0  0  0  0
  -29.8893   17.5997  -17.6383 C   0  0  0  0  0  0  0  0  0  0  0  0
  -29.8395   16.3739  -16.7109 C   0  0  1  0  0  0  0  0  0  0  0  0
  -28.6396   15.5339  -16.8693 N   0  0  0  0  0  0  0  0  0  0  0  0
  -28.8020   14.2113  -16.2188 C   0  0  0  0  0  0  0  0  0  0  0  0
  -27.5239   13.3625  -16.3224 C   0  0  0  0  0  0  0  0  0  0  0  0
  -26.4015   14.0368  -15.7414 O   0  0  0  0  0  0  0  0  0  0  0  0
  -26.1955   15.2912  -16.4007 C   0  0  0  0  0  0  0  0  0  0  0  0
  -27.4397   16.1870  -16.2912 C   0  0  0  0  0  0  0  0  0  0  0  0
  -32.3737   18.0820  -17.2111 C   0  0  0  0  0  0  0  0  0  0  0  0
  -32.7819   18.4897  -18.5167 O   0  0  0  0  0  0  0  0  0  0  0  0
  -30.7742   19.9020  -17.4738 N   0  0  0  0  0  0  0  0  0  0  0  0
  -32.3308   17.8588  -19.1167 H   0  0  0  0  0  0  0  0  0  0  0  0
  -29.9895   20.3622  -17.0089 H   0  0  0  0  0  0  0  0  0  0  0  0
  -31.5995   20.4444  -17.2126 H   0  0  0  0  0  0  0  0  0  0  0  0
  1  2  1  0  0  0  0
  2  3  1  0  0  0  0
  3  4  1  0  0  0  0
  3 14  1  0  0  0  0
  3 12  1  6  0  0  0
  4  5  1  0  0  0  0
  5  1  1  1  0  0  0
  5  6  1  0  0  0  0
  6  7  1  0  0  0  0
  6 11  1  0  0  0  0
  7  8  1  0  0  0  0
  8  9  1  0  0  0  0
  9 10  1  0  0  0  0
 10 11  1  0  0  0  0
 12 13  1  0  0  0  0
 13 15  1  0  0  0  0
 14 16  1  0  0  0  0
 14 17  1  0  0  0  0
M  END
>  <CHROM.0>
-57.26387146,-59.90856251,-60.21238571,-41.65076877,-174.99139698,-62.34361620
-66.78871152,-173.64694364,-169.32584394

>  <CHROM.1>
33.99707739,166.69079620,76.79055147,75.18818436,-29.44787066,16.66167343
-16.67577381,-2.44269156,0.38221573,-3.01073175

>  <Name>
P135625956

>  <RI>
0

>  <Rbt.Current_Directory>
/home/fstefaniak/projects/zuza/docking/adenine/4TZX

>  <Rbt.Executable>
rbdock ($Id: //depot/dev/client3/rdock/2013.1/src/exe/rbdock.cxx#4 $)

>  <Rbt.Library>
libRbt.so (2013.1, Build901 2013/11/27)

>  <Rbt.Parameter_File>
/home/fstefaniak/progs/rDock//data/scripts/dock_solv.prm

>  <Rbt.Receptor>
4tzx.prm

>  <SCORE>
-41.7884

>  <SCORE.INTER>
-23.3828

>  <SCORE.INTER.CONST>
1

>  <SCORE.INTER.POLAR>
-4.39985

>  <SCORE.INTER.ROT>
3

>  <SCORE.INTER.SOLV>
14.4956

>  <SCORE.INTER.VDW>
-11.3542

>  <SCORE.INTER.norm>
-1.6702

>  <SCORE.INTRA>
2.66762

>  <SCORE.INTRA.DIHEDRAL>
0.167806

>  <SCORE.INTRA.DIHEDRAL.0>
2.84206

>  <SCORE.INTRA.POLAR>
0.376643

>  <SCORE.INTRA.POLAR.0>
-0.376643

>  <SCORE.INTRA.REPUL>
0

>  <SCORE.INTRA.REPUL.0>
0

>  <SCORE.INTRA.SOLV>
0.0384087

>  <SCORE.INTRA.SOLV.lig_0>
-13.7969

>  <SCORE.INTRA.VDW>
1.28393

>  <SCORE.INTRA.VDW.0>
1.30305

>  <SCORE.INTRA.norm>
0.190544

>  <SCORE.RESTR>
0

>  <SCORE.RESTR.CAVITY>
0

>  <SCORE.RESTR.norm>
0

>  <SCORE.SYSTEM>
-21.0732

>  <SCORE.SYSTEM.CONST>
0

>  <SCORE.SYSTEM.DIHEDRAL>
4.6842

>  <SCORE.SYSTEM.POLAR>
-3.0823

>  <SCORE.SYSTEM.SOLV>
-0.117127

>  <SCORE.SYSTEM.VDW>
-5.29684

>  <SCORE.SYSTEM.norm>
-1.50523

>  <SCORE.heavy>
14

>  <SCORE.norm>
-2.98488

$$$$
P135648622
 OpenBabel12072022113D
libRbt.so/2013.1/901 2013/11/27
 18 18  0  0  0  0  0  0  0  0999 V2000
  -29.1376   15.8170  -15.2181 C   0  0  0  0  0  0  0  0  0  0  0  0
  -28.2334   16.4799  -16.2774 C   0  0  0  0  0  0  0  0  0  0  0  0
  -28.9985   16.9770  -17.4050 O   0  0  0  0  0  0  0  0  0  0  0  0
  -30.0084   17.9293  -16.9593 C   0  0  2  0  0  0  0  0  0  0  0  0
  -30.9678   17.2139  -15.9967 C   0  0  0  0  0  0  0  0  0  0  0  0
  -30.2090   16.7484  -14.8418 N   0  0  0  0  0  0  0  0  0  0  0  0
  -30.0518   17.6598  -13.8171 C   0  0  0  0  0  0  0  0  0  0  0  0
  -30.9526   18.4025  -13.4414 O   0  0  0  0  0  0  0  0  0  0  0  0
  -28.8179   17.7187  -13.2705 N   0  0  0  0  0  0  0  0  0  0  0  0
  -30.7487   18.4470  -18.1583 C   0  0  0  0  0  0  0  0  0  0  0  0
  -31.7914   19.2374  -17.9959 N   0  3  0  0  0  0  0  0  0  0  0  0
  -32.3094   19.6151  -18.7804 H   0  0  0  0  0  0  0  0  0  0  0  0
  -32.1039   19.5166  -17.0673 H   0  0  0  0  0  0  0  0  0  0  0  0
  -30.2914   18.0971  -19.3434 N   0  0  0  0  0  0  0  0  0  0  0  0
  -28.6667   17.1616  -12.4400 H   0  0  0  0  0  0  0  0  0  0  0  0
  -28.4589   18.6636  -13.1857 H   0  0  0  0  0  0  0  0  0  0  0  0
  -30.6938   18.3971  -20.2203 H   0  0  0  0  0  0  0  0  0  0  0  0
  -29.4525   17.5130  -19.3623 H   0  0  0  0  0  0  0  0  0  0  0  0
  1  2  1  0  0  0  0
  1  6  1  0  0  0  0
  2  3  1  0  0  0  0
  3  4  1  0  0  0  0
  4  5  1  0  0  0  0
  4 10  1  6  0  0  0
  5  6  1  0  0  0  0
  6  7  1  0  0  0  0
  7  8  2  0  0  0  0
  7  9  1  0  0  0  0
  9 15  1  0  0  0  0
  9 16  1  0  0  0  0
 10 11  2  0  0  0  0
 10 14  1  0  0  0  0
 11 12  1  0  0  0  0
 11 13  1  0  0  0  0
 14 17  1  0  0  0  0
 14 18  1  0  0  0  0
M  CHG  1  11   1
M  END
>  <CHROM.0>
-41.08839506,49.72670668,-45.58764266,-41.62000694,-60.21359450,-55.23017413
-62.18765823,-57.51860478,-169.13128433

>  <CHROM.1>
174.11247344,-176.34717153,-94.99673079,-30.01664019,17.58183878,-16.06954587
-1.30252499,0.71078070,-1.55644156

>  <Name>
P135648622

>  <RI>
0

>  <Rbt.Current_Directory>
/home/fstefaniak/projects/zuza/docking/adenine/4TZX

>  <Rbt.Executable>
rbdock ($Id: //depot/dev/client3/rdock/2013.1/src/exe/rbdock.cxx#4 $)

>  <Rbt.Library>
libRbt.so (2013.1, Build901 2013/11/27)

>  <Rbt.Parameter_File>
/home/fstefaniak/progs/rDock//data/scripts/dock_solv.prm

>  <Rbt.Receptor>
4tzx.prm

>  <SCORE>
-55.3325

>  <SCORE.INTER>
-36.4164

>  <SCORE.INTER.CONST>
1

>  <SCORE.INTER.POLAR>
-6.41808

>  <SCORE.INTER.ROT>
3

>  <SCORE.INTER.SOLV>
25.8513

>  <SCORE.INTER.VDW>
-17.1011

>  <SCORE.INTER.norm>
-3.0347

>  <SCORE.INTRA>
-0.0468747

>  <SCORE.INTRA.DIHEDRAL>
-0.0557615

>  <SCORE.INTRA.DIHEDRAL.0>
2.17469

>  <SCORE.INTRA.POLAR>
0.00775415

>  <SCORE.INTRA.POLAR.0>
-0.183781

>  <SCORE.INTRA.REPUL>
0

>  <SCORE.INTRA.REPUL.0>
0

>  <SCORE.INTRA.SOLV>
0.0608738

>  <SCORE.INTRA.SOLV.lig_0>
-38.4222

>  <SCORE.INTRA.VDW>
-0.075795

>  <SCORE.INTRA.VDW.0>
0.370614

>  <SCORE.INTRA.norm>
-0.00390623

>  <SCORE.RESTR>
0

>  <SCORE.RESTR.CAVITY>
0

>  <SCORE.RESTR.norm>
0

>  <SCORE.SYSTEM>
-18.8693

>  <SCORE.SYSTEM.CONST>
0

>  <SCORE.SYSTEM.DIHEDRAL>
7.20943

>  <SCORE.SYSTEM.POLAR>
-3.39929

>  <SCORE.SYSTEM.SOLV>
0.359065

>  <SCORE.SYSTEM.VDW>
-3.77135

>  <SCORE.SYSTEM.norm>
-1.57244

>  <SCORE.heavy>
12

>  <SCORE.norm>
-4.61104

$$$$
P135648622
 OpenBabel12072022113D
libRbt.so/2013.1/901 2013/11/27
 18 18  0  0  0  0  0  0  0  0999 V2000
  -29.1707   15.8138  -15.1945 C   0  0  0  0  0  0  0  0  0  0  0  0
  -28.2548   16.4705  -16.2475 C   0  0  0  0  0  0  0  0  0  0  0  0
  -29.0087   16.9722  -17.3807 O   0  0  0  0  0  0  0  0  0  0  0  0
  -30.0155   17.9311  -16.9423 C   0  0  2  0  0  0  0  0  0  0  0  0
  -30.9863   17.2224  -15.9863 C   0  0  0  0  0  0  0  0  0  0  0  0
  -30.2387   16.7523  -14.8259 N   0  0  0  0  0  0  0  0  0  0  0  0
  -30.0828   17.6630  -13.8003 C   0  0  0  0  0  0  0  0  0  0  0  0
  -30.9884   18.3948  -13.4152 O   0  0  0  0  0  0  0  0  0  0  0  0
  -28.8449   17.7342  -13.2643 N   0  0  0  0  0  0  0  0  0  0  0  0
  -30.7439   18.4533  -18.1466 C   0  0  0  0  0  0  0  0  0  0  0  0
  -31.7035   19.3453  -17.9985 N   0  3  0  0  0  0  0  0  0  0  0  0
  -32.2100   19.7289  -18.7877 H   0  0  0  0  0  0  0  0  0  0  0  0
  -31.9583   19.7002  -17.0782 H   0  0  0  0  0  0  0  0  0  0  0  0
  -30.3601   18.0012  -19.3232 N   0  0  0  0  0  0  0  0  0  0  0  0
  -28.6645   17.1372  -12.4681 H   0  0  0  0  0  0  0  0  0  0  0  0
  -28.5175   18.6849  -13.1302 H   0  0  0  0  0  0  0  0  0  0  0  0
  -30.7617   18.2920  -20.2036 H   0  0  0  0  0  0  0  0  0  0  0  0
  -29.5796   17.3409  -19.3336 H   0  0  0  0  0  0  0  0  0  0  0  0
  1  2  1  0  0  0  0
  1  6  1  0  0  0  0
  2  3  1  0  0  0  0
  3  4  1  0  0  0  0
  4  5  1  0  0  0  0
  4 10  1  6  0  0  0
  5  6  1  0  0  0  0
  6  7  1  0  0  0  0
  7  8  2  0  0  0  0
  7  9  1  0  0  0  0
  9 15  1  0  0  0  0
  9 16  1  0  0  0  0
 10 11  2  0  0  0  0
 10 14  1  0  0  0  0
 11 12  1  0  0  0  0
 11 13  1  0  0  0  0
 14 17  1  0  0  0  0
 14 18  1  0  0  0  0
M  CHG  1  11   1
M  END
>  <CHROM.0>
-38.94460026,53.51376436,-37.39428570,-42.81937163,-52.97612930,-57.25598483
-58.71595711,-56.45303565,-169.12702685

>  <CHROM.1>
-179.68771062,-174.99182520,-91.63072345,-30.03222116,17.58378963,-16.05290431
-1.30537285,0.73683157,-1.56170925

>  <Name>
P135648622

>  <RI>
0

>  <Rbt.Current_Directory>
/home/fstefaniak/projects/zuza/docking/adenine/4TZX

>  <Rbt.Executable>
rbdock ($Id: //depot/dev/client3/rdock/2013.1/src/exe/rbdock.cxx#4 $)

>  <Rbt.Library>
libRbt.so (2013.1, Build901 2013/11/27)

>  <Rbt.Parameter_File>
/home/fstefaniak/progs/rDock//data/scripts/dock_solv.prm

>  <Rbt.Receptor>
4tzx.prm

>  <SCORE>
-54.6418

>  <SCORE.INTER>
-35.9897

>  <SCORE.INTER.CONST>
1

>  <SCORE.INTER.POLAR>
-6.50009

>  <SCORE.INTER.ROT>
3

>  <SCORE.INTER.SOLV>
25.9991

>  <SCORE.INTER.VDW>
-16.5925

>  <SCORE.INTER.norm>
-2.99914

>  <SCORE.INTRA>
-0.207375

>  <SCORE.INTRA.DIHEDRAL>
-0.0432532

>  <SCORE.INTRA.DIHEDRAL.0>
2.17469

>  <SCORE.INTRA.POLAR>
-0.00193073

>  <SCORE.INTRA.POLAR.0>
-0.183781

>  <SCORE.INTRA.REPUL>
0

>  <SCORE.INTRA.REPUL.0>
0

>  <SCORE.INTRA.SOLV>
0.0381198

>  <SCORE.INTRA.SOLV.lig_0>
-38.4222

>  <SCORE.INTRA.VDW>
-0.198244

>  <SCORE.INTRA.VDW.0>
0.370614

>  <SCORE.INTRA.norm>
-0.0172812

>  <SCORE.RESTR>
0

>  <SCORE.RESTR.CAVITY>
0

>  <SCORE.RESTR.norm>
0

>  <SCORE.SYSTEM>
-18.4447

>  <SCORE.SYSTEM.CONST>
0

>  <SCORE.SYSTEM.DIHEDRAL>
8.398

>  <SCORE.SYSTEM.POLAR>
-3.48564

>  <SCORE.SYSTEM.SOLV>
0.367216

>  <SCORE.SYSTEM.VDW>
-3.59943

>  <SCORE.SYSTEM.norm>
-1.53706

>  <SCORE.heavy>
12

>  <SCORE.norm>
-4.55348

$$$$
P135648622
 OpenBabel12072022113D
libRbt.so/2013.1/901 2013/11/27
 18 18  0  0  0  0  0  0  0  0999 V2000
  -30.2107   15.5056  -15.5187 C   0  0  0  0  0  0  0  0  0  0  0  0
  -29.2334   15.6645  -16.7014 C   0  0  0  0  0  0  0  0  0  0  0  0
  -29.7484   16.5725  -17.7086 O   0  0  0  0  0  0  0  0  0  0  0  0
  -30.0273   17.8794  -17.1258 C   0  0  2  0  0  0  0  0  0  0  0  0
  -31.0909   17.7125  -16.0305 C   0  0  0  0  0  0  0  0  0  0  0  0
  -30.5609   16.8326  -14.9956 N   0  0  0  0  0  0  0  0  0  0  0  0
  -29.8137   17.4443  -14.0092 C   0  0  0  0  0  0  0  0  0  0  0  0
  -28.5981   17.3123  -13.9152 O   0  0  0  0  0  0  0  0  0  0  0  0
  -30.5132   18.1742  -13.1133 N   0  0  0  0  0  0  0  0  0  0  0  0
  -30.5194   18.7970  -18.2073 C   0  0  0  0  0  0  0  0  0  0  0  0
  -30.6022   20.0934  -17.9819 N   0  3  0  0  0  0  0  0  0  0  0  0
  -30.9191   20.7449  -18.6900 H   0  0  0  0  0  0  0  0  0  0  0  0
  -30.3276   20.4930  -17.0859 H   0  0  0  0  0  0  0  0  0  0  0  0
  -30.8273   18.2491  -19.3654 N   0  0  0  0  0  0  0  0  0  0  0  0
  -30.2271   19.1373  -12.9963 H   0  0  0  0  0  0  0  0  0  0  0  0
  -30.6639   17.6949  -12.2322 H   0  0  0  0  0  0  0  0  0  0  0  0
  -31.1510   18.7654  -20.1714 H   0  0  0  0  0  0  0  0  0  0  0  0
  -30.6905   17.2396  -19.4512 H   0  0  0  0  0  0  0  0  0  0  0  0
  1  2  1  0  0  0  0
  1  6  1  0  0  0  0
  2  3  1  0  0  0  0
  3  4  1  0  0  0  0
  4  5  1  0  0  0  0
  4 10  1  6  0  0  0
  5  6  1  0  0  0  0
  6  7  1  0  0  0  0
  7  8  2  0  0  0  0
  7  9  1  0  0  0  0
  9 15  1  0  0  0  0
  9 16  1  0  0  0  0
 10 11  2  0  0  0  0
 10 14  1  0  0  0  0
 11 12  1  0  0  0  0
 11 13  1  0  0  0  0
 14 17  1  0  0  0  0
 14 18  1  0  0  0  0
M  CHG  1  11   1
M  END
>  <CHROM.0>
-47.83232671,-167.99391033,61.25372552,-42.17036490,-172.10133584,-63.04572301
55.48062118,-60.45352793,-169.28090990

>  <CHROM.1>
-167.45424438,33.95718659,-125.18085039,-30.14137573,17.54229745,-16.22988245
-0.96625576,1.29685823,-1.86039734

>  <Name>
P135648622

>  <RI>
0

>  <Rbt.Current_Directory>
/home/fstefaniak/projects/zuza/docking/adenine/4TZX

>  <Rbt.Executable>
rbdock ($Id: //depot/dev/client3/rdock/2013.1/src/exe/rbdock.cxx#4 $)

>  <Rbt.Library>
libRbt.so (2013.1, Build901 2013/11/27)

>  <Rbt.Parameter_File>
/home/fstefaniak/progs/rDock//data/scripts/dock_solv.prm

>  <Rbt.Receptor>
4tzx.prm

>  <SCORE>
-54.1959

>  <SCORE.INTER>
-34.4092

>  <SCORE.INTER.CONST>
1

>  <SCORE.INTER.POLAR>
-6.56008

>  <SCORE.INTER.ROT>
3

>  <SCORE.INTER.SOLV>
29.0783

>  <SCORE.INTER.VDW>
-16.3653

>  <SCORE.INTER.norm>
-2.86743

>  <SCORE.INTRA>
-1.20946

>  <SCORE.INTRA.DIHEDRAL>
0.00191006

>  <SCORE.INTRA.DIHEDRAL.0>
2.17469

>  <SCORE.INTRA.POLAR>
0.0125069

>  <SCORE.INTRA.POLAR.0>
-0.183781

>  <SCORE.INTRA.REPUL>
0

>  <SCORE.INTRA.REPUL.0>
0

>  <SCORE.INTRA.SOLV>
-0.202679

>  <SCORE.INTRA.SOLV.lig_0>
-38.4222

>  <SCORE.INTRA.VDW>
-1.1516

>  <SCORE.INTRA.VDW.0>
0.370614

>  <SCORE.INTRA.norm>
-0.100789

>  <SCORE.RESTR>
0

>  <SCORE.RESTR.CAVITY>
0

>  <SCORE.RESTR.norm>
0

>  <SCORE.SYSTEM>
-18.5773

>  <SCORE.SYSTEM.CONST>
0

>  <SCORE.SYSTEM.DIHEDRAL>
5.80052

>  <SCORE.SYSTEM.POLAR>
-3.13212

>  <SCORE.SYSTEM.SOLV>
-0.130664

>  <SCORE.SYSTEM.VDW>
-3.83441

>  <SCORE.SYSTEM.norm>
-1.54811

>  <SCORE.heavy>
12

>  <SCORE.norm>
-4.51633

$$$$
P135688421
 OpenBabel12072022113D
libRbt.so/2013.1/901 2013/11/27
 14 14  0  0  0  0  0  0  0  0999 V2000
  -27.6657   13.7685  -17.1831 C   0  0  0  0  0  0  0  0  0  0  0  0
  -27.2333   14.7651  -16.1218 C   0  0  1  0  0  0  0  0  0  0  0  0
  -25.7114   14.9444  -15.9859 C   0  0  0  0  0  0  0  0  0  0  0  0
  -25.9129   16.4039  -16.3949 C   0  0  0  0  0  0  0  0  0  0  0  0
  -27.3319   16.1542  -16.5705 N   0  3  2  0  0  0  0  0  0  0  0  0
  -27.6950   16.3029  -17.5501 H   0  0  0  0  0  0  0  0  0  0  0  0
  -28.1837   17.0087  -15.6856 C   0  0  0  0  0  0  0  0  0  0  0  0
  -29.6782   16.8267  -15.9824 C   0  0  1  0  0  0  0  0  0  0  0  0
  -30.0863   15.3729  -15.7586 C   0  0  0  0  0  0  0  0  0  0  0  0
  -30.5074   17.7969  -15.0784 C   0  0  0  0  0  0  0  0  0  0  0  0
  -31.1112   18.7223  -15.7060 O   0  0  0  0  0  0  0  0  0  0  0  0
  -30.5770   17.4654  -13.8671 O   0  5  0  0  0  0  0  0  0  0  0  0
  -29.9592   17.1319  -17.3733 O   0  0  0  0  0  0  0  0  0  0  0  0
  -29.4399   16.4558  -17.8657 H   0  0  0  0  0  0  0  0  0  0  0  0
  2  1  1  6  0  0  0
  2  3  1  0  0  0  0
  2  5  1  0  0  0  0
  3  4  1  0  0  0  0
  4  5  1  0  0  0  0
  5  6  1  6  0  0  0
  5  7  1  0  0  0  0
  7  8  1  0  0  0  0
  8  9  1  1  0  0  0
  8 10  1  0  0  0  0
  8 13  1  0  0  0  0
 10 11  2  0  0  0  0
 10 12  1  0  0  0  0
 13 14  1  0  0  0  0
M  CHG  2   5   1  12  -1
M  END
>  <CHROM.0>
-58.70541178,-65.63828901,-63.49980043,-43.88698134,-59.68842354,-177.59169303
-63.93931697,-55.05289507,-168.87555352

>  <CHROM.1>
-80.78182744,60.16211704,112.89564250,62.78846893,-28.70418267,16.37815775
-15.99982945,0.63049767,0.06458178,-2.65306899

>  <Name>
P135688421

>  <RI>
0

>  <Rbt.Current_Directory>
/home/fstefaniak/projects/zuza/docking/adenine/4TZX

>  <Rbt.Executable>
rbdock ($Id: //depot/dev/client3/rdock/2013.1/src/exe/rbdock.cxx#4 $)

>  <Rbt.Library>
libRbt.so (2013.1, Build901 2013/11/27)

>  <Rbt.Parameter_File>
/home/fstefaniak/progs/rDock//data/scripts/dock_solv.prm

>  <Rbt.Receptor>
4tzx.prm

>  <SCORE>
-45.8574

>  <SCORE.INTER>
-26.114

>  <SCORE.INTER.CONST>
1

>  <SCORE.INTER.POLAR>
-5.16442

>  <SCORE.INTER.ROT>
3

>  <SCORE.INTER.SOLV>
22.9948

>  <SCORE.INTER.VDW>
-13.4596

>  <SCORE.INTER.norm>
-2.17617

>  <SCORE.INTRA>
1.08628

>  <SCORE.INTRA.DIHEDRAL>
-1.8116

>  <SCORE.INTRA.DIHEDRAL.0>
3.0936

>  <SCORE.INTRA.POLAR>
0.685166

>  <SCORE.INTRA.POLAR.0>
-0.685166

>  <SCORE.INTRA.REPUL>
0

>  <SCORE.INTRA.REPUL.0>
0

>  <SCORE.INTRA.SOLV>
-5.66083

>  <SCORE.INTRA.SOLV.lig_0>
-38.1044

>  <SCORE.INTRA.VDW>
2.49294

>  <SCORE.INTRA.VDW.0>
1.06699

>  <SCORE.INTRA.norm>
0.0905235

>  <SCORE.RESTR>
0

>  <SCORE.RESTR.CAVITY>
0

>  <SCORE.RESTR.norm>
0

>  <SCORE.SYSTEM>
-20.8296

>  <SCORE.SYSTEM.CONST>
0

>  <SCORE.SYSTEM.DIHEDRAL>
4.26611

>  <SCORE.SYSTEM.POLAR>
-3.05162

>  <SCORE.SYSTEM.SOLV>
0.0820038

>  <SCORE.SYSTEM.VDW>
-5.16371

>  <SCORE.SYSTEM.norm>
-1.7358

>  <SCORE.heavy>
12

>  <SCORE.norm>
-3.82145

$$$$
P135688421
 OpenBabel12072022113D
libRbt.so/2013.1/901 2013/11/27
 14 14  0  0  0  0  0  0  0  0999 V2000
  -28.0003   13.0191  -17.9948 C   0  0  0  0  0  0  0  0  0  0  0  0
  -28.0087   13.6830  -16.6290 C   0  0  1  0  0  0  0  0  0  0  0  0
  -26.6161   13.9604  -16.0370 C   0  0  0  0  0  0  0  0  0  0  0  0
  -26.9668   15.4481  -16.0790 C   0  0  0  0  0  0  0  0  0  0  0  0
  -28.2394   15.1261  -16.6981 N   0  3  2  0  0  0  0  0  0  0  0  0
  -28.3831   15.5295  -17.6626 H   0  0  0  0  0  0  0  0  0  0  0  0
  -29.4102   15.5835  -15.8862 C   0  0  0  0  0  0  0  0  0  0  0  0
  -29.6280   17.0981  -16.0007 C   0  0  1  0  0  0  0  0  0  0  0  0
  -29.9229   17.4798  -17.4490 C   0  0  0  0  0  0  0  0  0  0  0  0
  -30.7935   17.5268  -15.0499 C   0  0  0  0  0  0  0  0  0  0  0  0
  -31.6121   18.3578  -15.5541 O   0  0  0  0  0  0  0  0  0  0  0  0
  -30.8471   16.9019  -13.9597 O   0  5  0  0  0  0  0  0  0  0  0  0
  -28.4253   17.8134  -15.6149 O   0  0  0  0  0  0  0  0  0  0  0  0
  -28.3272   17.5980  -14.6593 H   0  0  0  0  0  0  0  0  0  0  0  0
  2  1  1  6  0  0  0
  2  3  1  0  0  0  0
  2  5  1  0  0  0  0
  3  4  1  0  0  0  0
  4  5  1  0  0  0  0
  5  6  1  6  0  0  0
  5  7  1  0  0  0  0
  7  8  1  0  0  0  0
  8  9  1  6  0  0  0
  8 10  1  0  0  0  0
  8 13  1  0  0  0  0
 10 11  2  0  0  0  0
 10 12  1  0  0  0  0
 13 14  1  0  0  0  0
M  CHG  2   5   1  12  -1
M  END
>  <CHROM.0>
-58.00094945,-68.98097431,-44.82218924,-42.51147893,-179.59127240,-175.21242227
-63.37721377,60.86731938,-166.89305192

>  <CHROM.1>
-179.25733245,61.50121840,-137.11903926,-65.09987037,-29.05208502,16.03847941
-16.07365661,0.74712379,0.57592495,-2.22634315

>  <Name>
P135688421

>  <RI>
0

>  <Rbt.Current_Directory>
/home/fstefaniak/projects/zuza/docking/adenine/4TZX

>  <Rbt.Executable>
rbdock ($Id: //depot/dev/client3/rdock/2013.1/src/exe/rbdock.cxx#4 $)

>  <Rbt.Library>
libRbt.so (2013.1, Build901 2013/11/27)

>  <Rbt.Parameter_File>
/home/fstefaniak/progs/rDock//data/scripts/dock_solv.prm

>  <Rbt.Receptor>
4tzx.prm

>  <SCORE>
-43.1942

>  <SCORE.INTER>
-23.7379

>  <SCORE.INTER.CONST>
1

>  <SCORE.INTER.POLAR>
-4.16506

>  <SCORE.INTER.ROT>
3

>  <SCORE.INTER.SOLV>
22.4262

>  <SCORE.INTER.VDW>
-15.0171

>  <SCORE.INTER.norm>
-1.97816

>  <SCORE.INTRA>
0.0667327

>  <SCORE.INTRA.DIHEDRAL>
-1.87881

>  <SCORE.INTRA.DIHEDRAL.0>
3.0936

>  <SCORE.INTRA.POLAR>
0.685166

>  <SCORE.INTRA.POLAR.0>
-0.685166

>  <SCORE.INTRA.REPUL>
0

>  <SCORE.INTRA.REPUL.0>
0

>  <SCORE.INTRA.SOLV>
-5.90303

>  <SCORE.INTRA.SOLV.lig_0>
-38.1044

>  <SCORE.INTRA.VDW>
1.62809

>  <SCORE.INTRA.VDW.0>
1.06699

>  <SCORE.INTRA.norm>
0.00556106

>  <SCORE.RESTR>
0

>  <SCORE.RESTR.CAVITY>
0

>  <SCORE.RESTR.norm>
0

>  <SCORE.SYSTEM>
-19.5231

>  <SCORE.SYSTEM.CONST>
0

>  <SCORE.SYSTEM.DIHEDRAL>
5.79912

>  <SCORE.SYSTEM.POLAR>
-3.20152

>  <SCORE.SYSTEM.SOLV>
-0.253914

>  <SCORE.SYSTEM.VDW>
-4.19204

>  <SCORE.SYSTEM.norm>
-1.62692

>  <SCORE.heavy>
12

>  <SCORE.norm>
-3.59952

$$$$
P135688421
 OpenBabel12072022113D
libRbt.so/2013.1/901 2013/11/27
 14 14  0  0  0  0  0  0  0  0999 V2000
  -27.6442   13.7626  -17.1667 C   0  0  0  0  0  0  0  0  0  0  0  0
  -27.2129   14.7767  -16.1217 C   0  0  1  0  0  0  0  0  0  0  0  0
  -25.6915   14.9684  -15.9970 C   0  0  0  0  0  0  0  0  0  0  0  0
  -25.9056   16.4207  -16.4248 C   0  0  0  0  0  0  0  0  0  0  0  0
  -27.3237   16.1588  -16.5888 N   0  3  2  0  0  0  0  0  0  0  0  0
  -27.6934   16.2915  -17.5682 H   0  0  0  0  0  0  0  0  0  0  0  0
  -28.1765   17.0195  -15.7108 C   0  0  0  0  0  0  0  0  0  0  0  0
  -29.6700   16.8445  -16.0164 C   0  0  1  0  0  0  0  0  0  0  0  0
  -30.0819   15.3885  -15.8142 C   0  0  0  0  0  0  0  0  0  0  0  0
  -30.5012   17.8039  -15.1027 C   0  0  0  0  0  0  0  0  0  0  0  0
  -31.1064   18.7347  -15.7210 O   0  0  0  0  0  0  0  0  0  0  0  0
  -30.5707   17.4598  -13.8950 O   0  5  0  0  0  0  0  0  0  0  0  0
  -29.9446   17.1692  -17.4042 O   0  0  0  0  0  0  0  0  0  0  0  0
  -29.4282   16.4959  -17.9035 H   0  0  0  0  0  0  0  0  0  0  0  0
  2  1  1  6  0  0  0
  2  3  1  0  0  0  0
  2  5  1  0  0  0  0
  3  4  1  0  0  0  0
  4  5  1  0  0  0  0
  5  6  1  6  0  0  0
  5  7  1  0  0  0  0
  7  8  1  0  0  0  0
  8  9  1  1  0  0  0
  8 10  1  0  0  0  0
  8 13  1  0  0  0  0
 10 11  2  0  0  0  0
 10 12  1  0  0  0  0
 13 14  1  0  0  0  0
M  CHG  2   5   1  12  -1
M  END
>  <CHROM.0>
-58.12131527,-61.62253102,-66.62921007,49.14375669,-53.33129877,-51.84074722
-68.22977835,-61.18048575,-169.10802453

>  <CHROM.1>
-81.95834643,59.23941379,113.25654823,63.06799005,-28.69349455,16.39038994
-16.02126516,0.62876679,0.05378353,-2.67534445

>  <Name>
P135688421

>  <RI>
0

>  <Rbt.Current_Directory>
/home/fstefaniak/projects/zuza/docking/adenine/4TZX

>  <Rbt.Executable>
rbdock ($Id: //depot/dev/client3/rdock/2013.1/src/exe/rbdock.cxx#4 $)

>  <Rbt.Library>
libRbt.so (2013.1, Build901 2013/11/27)

>  <Rbt.Parameter_File>
/home/fstefaniak/progs/rDock//data/scripts/dock_solv.prm

>  <Rbt.Receptor>
4tzx.prm

>  <SCORE>
-42.9482

>  <SCORE.INTER>
-26.1226

>  <SCORE.INTER.CONST>
1

>  <SCORE.INTER.POLAR>
-5.19443

>  <SCORE.INTER.ROT>
3

>  <SCORE.INTER.SOLV>
23.0291

>  <SCORE.INTER.VDW>
-13.3767

>  <SCORE.INTER.norm>
-2.17688

>  <SCORE.INTRA>
1.12615

>  <SCORE.INTRA.DIHEDRAL>
-1.7451

>  <SCORE.INTRA.DIHEDRAL.0>
3.0936

>  <SCORE.INTRA.POLAR>
0.685166

>  <SCORE.INTRA.POLAR.0>
-0.685166

>  <SCORE.INTRA.REPUL>
0

>  <SCORE.INTRA.REPUL.0>
0

>  <SCORE.INTRA.SOLV>
-5.63749

>  <SCORE.INTRA.SOLV.lig_0>
-38.1044

>  <SCORE.INTRA.VDW>
2.48787

>  <SCORE.INTRA.VDW.0>
1.06699

>  <SCORE.INTRA.norm>
0.0938455

>  <SCORE.RESTR>
0

>  <SCORE.RESTR.CAVITY>
0

>  <SCORE.RESTR.norm>
0

>  <SCORE.SYSTEM>
-17.9517

>  <SCORE.SYSTEM.CONST>
0

>  <SCORE.SYSTEM.DIHEDRAL>
4.23384

>  <SCORE.SYSTEM.POLAR>
-2.53654

>  <SCORE.SYSTEM.SOLV>
0.149354

>  <SCORE.SYSTEM.VDW>
-4.97376

>  <SCORE.SYSTEM.norm>
-1.49598

>  <SCORE.heavy>
12

>  <SCORE.norm>
-3.57902

$$$$
P135822850
 OpenBabel12072022113D
libRbt.so/2013.1/901 2013/11/27
 16 17  0  0  0  0  0  0  0  0999 V2000
  -30.7634   18.8140  -17.9613 C   0  0  0  0  0  0  0  0  0  0  0  0
  -30.2223   18.5472  -16.5637 C   0  0  2  0  0  0  0  0  0  0  0  0
  -29.9392   17.0628  -16.3220 C   0  0  2  0  0  0  0  0  0  0  0  0
  -31.0927   16.6303  -15.4373 C   0  0  0  0  0  0  0  0  0  0  0  0
  -31.4131   17.8949  -14.6764 C   0  0  0  0  0  0  0  0  0  0  0  0
  -31.2275   18.9584  -15.6166 O   0  0  0  0  0  0  0  0  0  0  0  0
  -28.5843   16.8748  -15.6520 C   0  0  0  0  0  0  0  0  0  0  0  0
  -28.3584   17.1909  -14.4875 O   0  0  0  0  0  0  0  0  0  0  0  0
  -27.6456   16.2865  -16.4730 N   0  0  0  0  0  0  0  0  0  0  0  0
  -26.2877   16.0695  -16.0801 C   0  0  2  0  0  0  0  0  0  0  0  0
  -25.1858   16.1504  -17.0988 C   0  0  0  0  0  0  0  0  0  0  0  0
  -25.5837   14.8152  -16.5454 C   0  0  2  0  0  0  0  0  0  0  0  0
  -26.3145   13.8748  -17.4088 N   0  0  0  0  0  0  0  0  0  0  0  0
  -27.8632   16.0497  -17.4366 H   0  0  0  0  0  0  0  0  0  0  0  0
  -25.6773   13.1566  -17.7565 H   0  0  0  0  0  0  0  0  0  0  0  0
  -26.6531   14.3613  -18.2405 H   0  0  0  0  0  0  0  0  0  0  0  0
  2  3  1  0  0  0  0
  2  6  1  0  0  0  0
  2  1  1  6  0  0  0
  3  4  1  0  0  0  0
  3  7  1  1  0  0  0
  4  5  1  0  0  0  0
  5  6  1  0  0  0  0
  7  8  2  0  0  0  0
  7  9  1  0  0  0  0
  9 14  1  0  0  0  0
 10 11  1  0  0  0  0
 10 12  1  0  0  0  0
 10  9  1  6  0  0  0
 11 12  1  0  0  0  0
 12 13  1  6  0  0  0
 13 15  1  0  0  0  0
 13 16  1  0  0  0  0
M  END
>  <CHROM.0>
-52.60164277,-77.35399792,-70.47058186,-42.90340532,-62.89192218,-179.83785969
-164.34928199,-60.07018477,-168.60270195

>  <CHROM.1>
70.55746271,-146.71477420,171.42583104,-28.68248434,16.86295747,-16.19234046
3.14003115,-0.56882109,1.85605693

>  <Name>
P135822850

>  <RI>
0

>  <Rbt.Current_Directory>
/home/fstefaniak/projects/zuza/docking/adenine/4TZX

>  <Rbt.Executable>
rbdock ($Id: //depot/dev/client3/rdock/2013.1/src/exe/rbdock.cxx#4 $)

>  <Rbt.Library>
libRbt.so (2013.1, Build901 2013/11/27)

>  <Rbt.Parameter_File>
/home/fstefaniak/progs/rDock//data/scripts/dock_solv.prm

>  <Rbt.Receptor>
4tzx.prm

>  <SCORE>
-58.451

>  <SCORE.INTER>
-40.6476

>  <SCORE.INTER.CONST>
1

>  <SCORE.INTER.POLAR>
-4.57291

>  <SCORE.INTER.ROT>
3

>  <SCORE.INTER.SOLV>
13.9749

>  <SCORE.INTER.VDW>
-22.1137

>  <SCORE.INTER.norm>
-3.12674

>  <SCORE.INTRA>
1.8121

>  <SCORE.INTRA.DIHEDRAL>
3.1727

>  <SCORE.INTRA.DIHEDRAL.0>
2.95752

>  <SCORE.INTRA.POLAR>
0.0397795

>  <SCORE.INTRA.POLAR.0>
-0.0397795

>  <SCORE.INTRA.REPUL>
0

>  <SCORE.INTRA.REPUL.0>
0

>  <SCORE.INTRA.SOLV>
-0.000257545

>  <SCORE.INTRA.SOLV.lig_0>
-14.4552

>  <SCORE.INTRA.VDW>
0.0906303

>  <SCORE.INTRA.VDW.0>
-1.22633

>  <SCORE.INTRA.norm>
0.139392

>  <SCORE.RESTR>
0

>  <SCORE.RESTR.CAVITY>
0

>  <SCORE.RESTR.norm>
0

>  <SCORE.SYSTEM>
-19.6156

>  <SCORE.SYSTEM.CONST>
0

>  <SCORE.SYSTEM.DIHEDRAL>
7.19438

>  <SCORE.SYSTEM.POLAR>
-3.09893

>  <SCORE.SYSTEM.SOLV>
0.0375843

>  <SCORE.SYSTEM.VDW>
-5.15793

>  <SCORE.SYSTEM.norm>
-1.50889

>  <SCORE.heavy>
13

>  <SCORE.norm>
-4.49623

$$$$
P135822850
 OpenBabel12072022113D
libRbt.so/2013.1/901 2013/11/27
 16 17  0  0  0  0  0  0  0  0999 V2000
  -30.6728   18.7066  -18.0974 C   0  0  0  0  0  0  0  0  0  0  0  0
  -30.1470   18.4959  -16.6845 C   0  0  2  0  0  0  0  0  0  0  0  0
  -29.9018   17.0188  -16.3682 C   0  0  2  0  0  0  0  0  0  0  0  0
  -31.0710   16.6584  -15.4718 C   0  0  0  0  0  0  0  0  0  0  0  0
  -31.3649   17.9663  -14.7762 C   0  0  0  0  0  0  0  0  0  0  0  0
  -31.1476   18.9774  -15.7660 O   0  0  0  0  0  0  0  0  0  0  0  0
  -28.5561   16.8312  -15.6799 C   0  0  0  0  0  0  0  0  0  0  0  0
  -28.3657   17.0789  -14.4926 O   0  0  0  0  0  0  0  0  0  0  0  0
  -27.5811   16.3270  -16.5142 N   0  0  0  0  0  0  0  0  0  0  0  0
  -26.2254   16.1284  -16.1042 C   0  0  2  0  0  0  0  0  0  0  0  0
  -25.1135   16.2066  -17.1122 C   0  0  0  0  0  0  0  0  0  0  0  0
  -25.5045   14.8750  -16.5454 C   0  0  2  0  0  0  0  0  0  0  0  0
  -26.2169   13.9162  -17.4040 N   0  0  0  0  0  0  0  0  0  0  0  0
  -27.7700   16.1457  -17.4958 H   0  0  0  0  0  0  0  0  0  0  0  0
  -25.5554   13.2451  -17.7974 H   0  0  0  0  0  0  0  0  0  0  0  0
  -26.6176   14.4034  -18.2072 H   0  0  0  0  0  0  0  0  0  0  0  0
  2  3  1  0  0  0  0
  2  6  1  0  0  0  0
  2  1  1  6  0  0  0
  3  4  1  0  0  0  0
  3  7  1  1  0  0  0
  4  5  1  0  0  0  0
  5  6  1  0  0  0  0
  7  8  2  0  0  0  0
  7  9  1  0  0  0  0
  9 14  1  0  0  0  0
 10 11  1  0  0  0  0
 10 12  1  0  0  0  0
 10  9  1  6  0  0  0
 11 12  1  0  0  0  0
 12 13  1  6  0  0  0
 13 15  1  0  0  0  0
 13 16  1  0  0  0  0
M  END
>  <CHROM.0>
-59.84506902,-80.96783180,-66.92302707,-42.92327016,-51.76524220,59.93797092
-65.33858682,-62.70559718,-168.24935269

>  <CHROM.1>
77.86315494,-151.36688104,166.77143829,-28.62445198,16.86424744,-16.24656707
-3.13196347,-0.55298499,1.85721776

>  <Name>
P135822850

>  <RI>
0

>  <Rbt.Current_Directory>
/home/fstefaniak/projects/zuza/docking/adenine/4TZX

>  <Rbt.Executable>
rbdock ($Id: //depot/dev/client3/rdock/2013.1/src/exe/rbdock.cxx#4 $)

>  <Rbt.Library>
libRbt.so (2013.1, Build901 2013/11/27)

>  <Rbt.Parameter_File>
/home/fstefaniak/progs/rDock//data/scripts/dock_solv.prm

>  <Rbt.Receptor>
4tzx.prm

>  <SCORE>
-58.3455

>  <SCORE.INTER>
-40.6761

>  <SCORE.INTER.CONST>
1

>  <SCORE.INTER.POLAR>
-4.60489

>  <SCORE.INTER.ROT>
3

>  <SCORE.INTER.SOLV>
14.1184

>  <SCORE.INTER.VDW>
-22.0739

>  <SCORE.INTER.norm>
-3.12893

>  <SCORE.INTRA>
1.60042

>  <SCORE.INTRA.DIHEDRAL>
2.67471

>  <SCORE.INTRA.DIHEDRAL.0>
2.95752

>  <SCORE.INTRA.POLAR>
0.0397795

>  <SCORE.INTRA.POLAR.0>
-0.0397795

>  <SCORE.INTRA.REPUL>
0

>  <SCORE.INTRA.REPUL.0>
0

>  <SCORE.INTRA.SOLV>
0.0222234

>  <SCORE.INTRA.SOLV.lig_0>
-14.4552

>  <SCORE.INTRA.VDW>
0.116707

>  <SCORE.INTRA.VDW.0>
-1.22633

>  <SCORE.INTRA.norm>
0.12311

>  <SCORE.RESTR>
0

>  <SCORE.RESTR.CAVITY>
0

>  <SCORE.RESTR.norm>
0

>  <SCORE.SYSTEM>
-19.2698

>  <SCORE.SYSTEM.CONST>
0

>  <SCORE.SYSTEM.DIHEDRAL>
6.63945

>  <SCORE.SYSTEM.POLAR>
-3.07077

>  <SCORE.SYSTEM.SOLV>
0.039389

>  <SCORE.SYSTEM.VDW>
-4.8369

>  <SCORE.SYSTEM.norm>
-1.48229

>  <SCORE.heavy>
13

>  <SCORE.norm>
-4.48811

$$$$
P135822850
 OpenBabel12072022113D
libRbt.so/2013.1/901 2013/11/27
 16 17  0  0  0  0  0  0  0  0999 V2000
  -30.6940   18.7684  -18.0142 C   0  0  0  0  0  0  0  0  0  0  0  0
  -30.1693   18.5270  -16.6058 C   0  0  2  0  0  0  0  0  0  0  0  0
  -29.9009   17.0458  -16.3298 C   0  0  2  0  0  0  0  0  0  0  0  0
  -31.0668   16.6416  -15.4480 C   0  0  0  0  0  0  0  0  0  0  0  0
  -31.3844   17.9246  -14.7174 C   0  0  0  0  0  0  0  0  0  0  0  0
  -31.1805   18.9663  -15.6780 O   0  0  0  0  0  0  0  0  0  0  0  0
  -28.5545   16.8611  -15.6421 C   0  0  0  0  0  0  0  0  0  0  0  0
  -28.3530   17.1494  -14.4659 O   0  0  0  0  0  0  0  0  0  0  0  0
  -27.5929   16.3099  -16.4623 N   0  0  0  0  0  0  0  0  0  0  0  0
  -26.2384   16.1037  -16.0523 C   0  0  2  0  0  0  0  0  0  0  0  0
  -25.1222   16.2180  -17.0521 C   0  0  0  0  0  0  0  0  0  0  0  0
  -25.5104   14.8677  -16.5294 C   0  0  2  0  0  0  0  0  0  0  0  0
  -26.2150   13.9338  -17.4212 N   0  0  0  0  0  0  0  0  0  0  0  0
  -27.7906   16.0957  -17.4354 H   0  0  0  0  0  0  0  0  0  0  0  0
  -25.5611   13.2353  -17.7781 H   0  0  0  0  0  0  0  0  0  0  0  0
  -26.5541   14.4326  -18.2453 H   0  0  0  0  0  0  0  0  0  0  0  0
  2  3  1  0  0  0  0
  2  6  1  0  0  0  0
  2  1  1  6  0  0  0
  3  4  1  0  0  0  0
  3  7  1  1  0  0  0
  4  5  1  0  0  0  0
  5  6  1  0  0  0  0
  7  8  2  0  0  0  0
  7  9  1  0  0  0  0
  9 14  1  0  0  0  0
 10 11  1  0  0  0  0
 10 12  1  0  0  0  0
 10  9  1  6  0  0  0
 11 12  1  0  0  0  0
 12 13  1  6  0  0  0
 13 15  1  0  0  0  0
 13 16  1  0  0  0  0
M  END
>  <CHROM.0>
-57.01584857,-83.62975969,-69.82535339,-43.50375913,59.57005539,-67.65229683
-164.05409718,-59.79031691,-168.91796871

>  <CHROM.1>
73.65447090,-147.21700365,170.95585196,-28.63306570,16.87452407,-16.20054223
3.13828025,-0.55522913,1.84345461

>  <Name>
P135822850

>  <RI>
0

>  <Rbt.Current_Directory>
/home/fstefaniak/projects/zuza/docking/adenine/4TZX

>  <Rbt.Executable>
rbdock ($Id: //depot/dev/client3/rdock/2013.1/src/exe/rbdock.cxx#4 $)

>  <Rbt.Library>
libRbt.so (2013.1, Build901 2013/11/27)

>  <Rbt.Parameter_File>
/home/fstefaniak/progs/rDock//data/scripts/dock_solv.prm

>  <Rbt.Receptor>
4tzx.prm

>  <SCORE>
-57.9388

>  <SCORE.INTER>
-41.0166

>  <SCORE.INTER.CONST>
1

>  <SCORE.INTER.POLAR>
-4.65787

>  <SCORE.INTER.ROT>
3

>  <SCORE.INTER.SOLV>
14.1281

>  <SCORE.INTER.VDW>
-22.1275

>  <SCORE.INTER.norm>
-3.15513

>  <SCORE.INTRA>
1.74348

>  <SCORE.INTRA.DIHEDRAL>
2.99155

>  <SCORE.INTRA.DIHEDRAL.0>
2.95752

>  <SCORE.INTRA.POLAR>
0.0397795

>  <SCORE.INTRA.POLAR.0>
-0.0397795

>  <SCORE.INTRA.REPUL>
0

>  <SCORE.INTRA.REPUL.0>
0

>  <SCORE.INTRA.SOLV>
0.00405488

>  <SCORE.INTRA.SOLV.lig_0>
-14.4552

>  <SCORE.INTRA.VDW>
0.110428

>  <SCORE.INTRA.VDW.0>
-1.22633

>  <SCORE.INTRA.norm>
0.134114

>  <SCORE.RESTR>
0

>  <SCORE.RESTR.CAVITY>
0

>  <SCORE.RESTR.norm>
0

>  <SCORE.SYSTEM>
-18.6657

>  <SCORE.SYSTEM.CONST>
0

>  <SCORE.SYSTEM.DIHEDRAL>
8.0929

>  <SCORE.SYSTEM.POLAR>
-3.05377

>  <SCORE.SYSTEM.SOLV>
-0.0816789

>  <SCORE.SYSTEM.VDW>
-4.93497

>  <SCORE.SYSTEM.norm>
-1.43582

>  <SCORE.heavy>
13

>  <SCORE.norm>
-4.45683

$$$$
P135988194
 OpenBabel12072022113D
libRbt.so/2013.1/901 2013/11/27
 18 18  0  0  0  0  0  0  0  0999 V2000
  -30.0558   15.2599  -15.6475 C   0  0  0  0  0  0  0  0  0  0  0  0
  -29.1179   16.4669  -15.8455 C   0  0  0  0  0  0  0  0  0  0  0  0
  -29.7846   17.5341  -16.7281 C   0  0  0  0  0  0  0  0  0  0  0  0
  -30.7033   18.3199  -15.7953 C   0  0  0  0  0  0  0  0  0  0  0  0
  -30.2012   18.0640  -14.3739 C   0  0  0  0  0  0  0  0  0  0  0  0
  -28.9218   17.2265  -14.5143 C   0  0  2  0  0  0  0  0  0  0  0  0
  -27.7481   18.1293  -14.5441 N   0  0  0  0  0  0  0  0  0  0  0  0
  -27.1772   18.7047  -13.4684 C   0  0  0  0  0  0  0  0  0  0  0  0
  -27.6027   18.4491  -12.1882 N   0  3  0  0  0  0  0  0  0  0  0  0
  -28.2242   17.6765  -11.9581 H   0  0  0  0  0  0  0  0  0  0  0  0
  -27.0142   19.1423  -11.1177 N   0  0  0  0  0  0  0  0  0  0  0  0
  -26.1499   19.5516  -13.6508 N   0  0  0  0  0  0  0  0  0  0  0  0
  -27.8166   15.9650  -16.4797 C   0  0  0  0  0  0  0  0  0  0  0  0
  -27.3876   18.4042  -15.4492 H   0  0  0  0  0  0  0  0  0  0  0  0
  -25.9983   18.9871  -11.1288 H   0  0  0  0  0  0  0  0  0  0  0  0
  -27.1511   20.1529  -11.2460 H   0  0  0  0  0  0  0  0  0  0  0  0
  -25.7686   19.7769  -14.5574 H   0  0  0  0  0  0  0  0  0  0  0  0
  -25.6596   19.8690  -12.8224 H   0  0  0  0  0  0  0  0  0  0  0  0
  1  2  1  0  0  0  0
  2  3  1  0  0  0  0
  2  6  1  0  0  0  0
  2 13  1  0  0  0  0
  3  4  1  0  0  0  0
  4  5  1  0  0  0  0
  5  6  1  0  0  0  0
  6  7  1  6  0  0  0
  7  8  1  0  0  0  0
  7 14  1  0  0  0  0
  8  9  2  0  0  0  0
  8 12  1  0  0  0  0
  9 10  1  0  0  0  0
  9 11  1  0  0  0  0
 11 15  1  0  0  0  0
 11 16  1  0  0  0  0
 12 17  1  0  0  0  0
 12 18  1  0  0  0  0
M  CHG  1   9   1
M  END
>  <CHROM.0>
-58.31868058,-59.50101131,-68.69976175,-43.18411557,56.55733731,-168.86464435
-62.09772246,-56.71051600,-169.50178727

>  <CHROM.1>
-165.89023165,-56.83292891,-28.47197684,17.76523595,-14.48643717,2.12985372
0.05405893,-2.19276017

>  <Name>
P135988194

>  <RI>
0

>  <Rbt.Current_Directory>
/home/fstefaniak/projects/zuza/docking/adenine/4TZX

>  <Rbt.Executable>
rbdock ($Id: //depot/dev/client3/rdock/2013.1/src/exe/rbdock.cxx#4 $)

>  <Rbt.Library>
libRbt.so (2013.1, Build901 2013/11/27)

>  <Rbt.Parameter_File>
/home/fstefaniak/progs/rDock//data/scripts/dock_solv.prm

>  <Rbt.Receptor>
4tzx.prm

>  <SCORE>
-45.3818

>  <SCORE.INTER>
-26.4892

>  <SCORE.INTER.CONST>
1

>  <SCORE.INTER.POLAR>
-6.25717

>  <SCORE.INTER.ROT>
2

>  <SCORE.INTER.SOLV>
20.4295

>  <SCORE.INTER.VDW>
-8.54542

>  <SCORE.INTER.norm>
-2.20743

>  <SCORE.INTRA>
0.913162

>  <SCORE.INTRA.DIHEDRAL>
0.580644

>  <SCORE.INTRA.DIHEDRAL.0>
2.84556

>  <SCORE.INTRA.POLAR>
0.0382042

>  <SCORE.INTRA.POLAR.0>
-0.0382042

>  <SCORE.INTRA.REPUL>
0

>  <SCORE.INTRA.REPUL.0>
0

>  <SCORE.INTRA.SOLV>
0.000443575

>  <SCORE.INTRA.SOLV.lig_0>
-25.848

>  <SCORE.INTRA.VDW>
0.492725

>  <SCORE.INTRA.VDW.0>
-1.38046

>  <SCORE.INTRA.norm>
0.0760969

>  <SCORE.RESTR>
0

>  <SCORE.RESTR.CAVITY>
0

>  <SCORE.RESTR.norm>
0

>  <SCORE.SYSTEM>
-19.8057

>  <SCORE.SYSTEM.CONST>
0

>  <SCORE.SYSTEM.DIHEDRAL>
4.90922

>  <SCORE.SYSTEM.POLAR>
-3.04379

>  <SCORE.SYSTEM.SOLV>
-0.13031

>  <SCORE.SYSTEM.VDW>
-4.65084

>  <SCORE.SYSTEM.norm>
-1.65048

>  <SCORE.heavy>
12

>  <SCORE.norm>
-3.78182

$$$$
P135988194
 OpenBabel12072022113D
libRbt.so/2013.1/901 2013/11/27
 18 18  0  0  0  0  0  0  0  0999 V2000
  -30.3428   17.4801  -17.4963 C   0  0  0  0  0  0  0  0  0  0  0  0
  -30.0331   17.2609  -16.0024 C   0  0  0  0  0  0  0  0  0  0  0  0
  -30.1030   15.7673  -15.6464 C   0  0  0  0  0  0  0  0  0  0  0  0
  -28.7599   15.1817  -16.0762 C   0  0  0  0  0  0  0  0  0  0  0  0
  -27.7881   16.3572  -16.1850 C   0  0  0  0  0  0  0  0  0  0  0  0
  -28.5554   17.5955  -15.6991 C   0  0  2  0  0  0  0  0  0  0  0  0
  -28.3031   17.7896  -14.2527 N   0  0  0  0  0  0  0  0  0  0  0  0
  -27.3007   18.5182  -13.7251 C   0  0  0  0  0  0  0  0  0  0  0  0
  -26.4231   19.2302  -14.5049 N   0  3  0  0  0  0  0  0  0  0  0  0
  -26.5881   19.4149  -15.4922 H   0  0  0  0  0  0  0  0  0  0  0  0
  -25.3538   19.9057  -13.8939 N   0  0  0  0  0  0  0  0  0  0  0  0
  -27.1575   18.5586  -12.3896 N   0  0  0  0  0  0  0  0  0  0  0  0
  -31.0416   18.0690  -15.1793 C   0  0  0  0  0  0  0  0  0  0  0  0
  -28.8790   17.2726  -13.6002 H   0  0  0  0  0  0  0  0  0  0  0  0
  -24.5678   19.9661  -14.5533 H   0  0  0  0  0  0  0  0  0  0  0  0
  -25.6312   20.8741  -13.6892 H   0  0  0  0  0  0  0  0  0  0  0  0
  -27.7714   18.0776  -11.7493 H   0  0  0  0  0  0  0  0  0  0  0  0
  -26.4786   19.2123  -12.0168 H   0  0  0  0  0  0  0  0  0  0  0  0
  1  2  1  0  0  0  0
  2  3  1  0  0  0  0
  2  6  1  0  0  0  0
  2 13  1  0  0  0  0
  3  4  1  0  0  0  0
  4  5  1  0  0  0  0
  5  6  1  0  0  0  0
  6  7  1  1  0  0  0
  7  8  1  0  0  0  0
  7 14  1  0  0  0  0
  8  9  2  0  0  0  0
  8 12  1  0  0  0  0
  9 10  1  0  0  0  0
  9 11  1  0  0  0  0
 11 15  1  0  0  0  0
 11 16  1  0  0  0  0
 12 17  1  0  0  0  0
 12 18  1  0  0  0  0
M  CHG  1   9   1
M  END
>  <CHROM.0>
-58.10822465,-63.05017954,60.55565296,-42.83834142,-57.21616240,-59.71248008
56.93966276,-173.82992201,-168.90743696

>  <CHROM.1>
-155.31175883,151.26181529,-28.38849189,17.69102680,-15.04912529,2.34940579
0.08636496,-2.42195396

>  <Name>
P135988194

>  <RI>
0

>  <Rbt.Current_Directory>
/home/fstefaniak/projects/zuza/docking/adenine/4TZX

>  <Rbt.Executable>
rbdock ($Id: //depot/dev/client3/rdock/2013.1/src/exe/rbdock.cxx#4 $)

>  <Rbt.Library>
libRbt.so (2013.1, Build901 2013/11/27)

>  <Rbt.Parameter_File>
/home/fstefaniak/progs/rDock//data/scripts/dock_solv.prm

>  <Rbt.Receptor>
4tzx.prm

>  <SCORE>
-44.8393

>  <SCORE.INTER>
-25.829

>  <SCORE.INTER.CONST>
1

>  <SCORE.INTER.POLAR>
-4.40566

>  <SCORE.INTER.ROT>
2

>  <SCORE.INTER.SOLV>
20.1267

>  <SCORE.INTER.VDW>
-14.176

>  <SCORE.INTER.norm>
-2.15241

>  <SCORE.INTRA>
0.0553188

>  <SCORE.INTRA.DIHEDRAL>
0.505161

>  <SCORE.INTRA.DIHEDRAL.0>
2.84556

>  <SCORE.INTRA.POLAR>
-0.00737719

>  <SCORE.INTRA.POLAR.0>
-0.0382042

>  <SCORE.INTRA.REPUL>
0

>  <SCORE.INTRA.REPUL.0>
0

>  <SCORE.INTRA.SOLV>
-0.487031

>  <SCORE.INTRA.SOLV.lig_0>
-25.848

>  <SCORE.INTRA.VDW>
0.0713365

>  <SCORE.INTRA.VDW.0>
-1.38046

>  <SCORE.INTRA.norm>
0.0046099

>  <SCORE.RESTR>
0

>  <SCORE.RESTR.CAVITY>
0

>  <SCORE.RESTR.norm>
0

>  <SCORE.SYSTEM>
-19.0656

>  <SCORE.SYSTEM.CONST>
0

>  <SCORE.SYSTEM.DIHEDRAL>
4.2984

>  <SCORE.SYSTEM.POLAR>
-3.05351

>  <SCORE.SYSTEM.SOLV>
-0.0476276

>  <SCORE.SYSTEM.VDW>
-3.94897

>  <SCORE.SYSTEM.norm>
-1.5888

>  <SCORE.heavy>
12

>  <SCORE.norm>
-3.73661

$$$$
P135988194
 OpenBabel12072022113D
libRbt.so/2013.1/901 2013/11/27
 18 18  0  0  0  0  0  0  0  0999 V2000
  -29.6771   15.1177  -15.7760 C   0  0  0  0  0  0  0  0  0  0  0  0
  -28.7507   16.3327  -15.9788 C   0  0  0  0  0  0  0  0  0  0  0  0
  -29.3090   17.2666  -17.0644 C   0  0  0  0  0  0  0  0  0  0  0  0
  -30.3722   18.1129  -16.3679 C   0  0  0  0  0  0  0  0  0  0  0  0
  -30.0747   18.0378  -14.8699 C   0  0  0  0  0  0  0  0  0  0  0  0
  -28.7680   17.2433  -14.7305 C   0  0  2  0  0  0  0  0  0  0  0  0
  -27.6252   18.1848  -14.6993 N   0  0  0  0  0  0  0  0  0  0  0  0
  -27.0862   18.7232  -13.5886 C   0  0  0  0  0  0  0  0  0  0  0  0
  -27.5173   18.3888  -12.3286 N   0  3  0  0  0  0  0  0  0  0  0  0
  -28.1151   17.5854  -12.1459 H   0  0  0  0  0  0  0  0  0  0  0  0
  -26.9647   19.0456  -11.2168 N   0  0  0  0  0  0  0  0  0  0  0  0
  -26.0860   19.6117  -13.7145 N   0  0  0  0  0  0  0  0  0  0  0  0
  -27.3593   15.8173  -16.3607 C   0  0  0  0  0  0  0  0  0  0  0  0
  -27.2639   18.5172  -15.5846 H   0  0  0  0  0  0  0  0  0  0  0  0
  -25.9466   18.9048  -11.2095 H   0  0  0  0  0  0  0  0  0  0  0  0
  -27.1133   20.0587  -11.3074 H   0  0  0  0  0  0  0  0  0  0  0  0
  -25.7023   19.8954  -14.6036 H   0  0  0  0  0  0  0  0  0  0  0  0
  -25.6161   19.9025  -12.8649 H   0  0  0  0  0  0  0  0  0  0  0  0
  1  2  1  0  0  0  0
  2  3  1  0  0  0  0
  2  6  1  0  0  0  0
  2 13  1  0  0  0  0
  3  4  1  0  0  0  0
  4  5  1  0  0  0  0
  5  6  1  0  0  0  0
  6  7  1  6  0  0  0
  7  8  1  0  0  0  0
  7 14  1  0  0  0  0
  8  9  2  0  0  0  0
  8 12  1  0  0  0  0
  9 10  1  0  0  0  0
  9 11  1  0  0  0  0
 11 15  1  0  0  0  0
 11 16  1  0  0  0  0
 12 17  1  0  0  0  0
 12 18  1  0  0  0  0
M  CHG  1   9   1
M  END
>  <CHROM.0>
-58.92026156,-61.35226713,-58.93945270,-43.64419410,-174.45422257,-61.18432243
-65.53296409,-173.85056981,-168.37167695

>  <CHROM.1>
-153.79807046,-58.24909875,-28.24948442,17.68854782,-14.67729457,-2.09715219
-0.29065154,0.81976097

>  <Name>
P135988194

>  <RI>
0

>  <Rbt.Current_Directory>
/home/fstefaniak/projects/zuza/docking/adenine/4TZX

>  <Rbt.Executable>
rbdock ($Id: //depot/dev/client3/rdock/2013.1/src/exe/rbdock.cxx#4 $)

>  <Rbt.Library>
libRbt.so (2013.1, Build901 2013/11/27)

>  <Rbt.Parameter_File>
/home/fstefaniak/progs/rDock//data/scripts/dock_solv.prm

>  <Rbt.Receptor>
4tzx.prm

>  <SCORE>
-44.4134

>  <SCORE.INTER>
-24.0434

>  <SCORE.INTER.CONST>
1

>  <SCORE.INTER.POLAR>
-5.12457

>  <SCORE.INTER.ROT>
2

>  <SCORE.INTER.SOLV>
20.4459

>  <SCORE.INTER.VDW>
-10.6957

>  <SCORE.INTER.norm>
-2.00362

>  <SCORE.INTRA>
0.697248

>  <SCORE.INTRA.DIHEDRAL>
0.642973

>  <SCORE.INTRA.DIHEDRAL.0>
2.84556

>  <SCORE.INTRA.POLAR>
0.0382042

>  <SCORE.INTRA.POLAR.0>
-0.0382042

>  <SCORE.INTRA.REPUL>
0

>  <SCORE.INTRA.REPUL.0>
0

>  <SCORE.INTRA.SOLV>
-0.0903384

>  <SCORE.INTRA.SOLV.lig_0>
-25.848

>  <SCORE.INTRA.VDW>
0.291037

>  <SCORE.INTRA.VDW.0>
-1.38046

>  <SCORE.INTRA.norm>
0.058104

>  <SCORE.RESTR>
0

>  <SCORE.RESTR.CAVITY>
0

>  <SCORE.RESTR.norm>
0

>  <SCORE.SYSTEM>
-21.0672

>  <SCORE.SYSTEM.CONST>
0

>  <SCORE.SYSTEM.DIHEDRAL>
4.39759

>  <SCORE.SYSTEM.POLAR>
-3.04878

>  <SCORE.SYSTEM.SOLV>
-0.118413

>  <SCORE.SYSTEM.VDW>
-5.30861

>  <SCORE.SYSTEM.norm>
-1.7556

>  <SCORE.heavy>
12

>  <SCORE.norm>
-3.70112

$$$$
P136004391
 OpenBabel12072022113D
libRbt.so/2013.1/901 2013/11/27
 16 16  0  0  0  0  0  0  0  0999 V2000
  -24.4260   11.1225  -16.1708 C   0  0  0  0  0  0  0  0  0  0  0  0
  -25.6279   11.8998  -16.7124 C   0  0  2  0  0  0  0  0  0  0  0  0
  -25.3906   13.4086  -16.6216 C   0  0  0  0  0  0  0  0  0  0  0  0
  -26.5598   14.2671  -16.8508 N   0  0  0  0  0  0  0  0  0  0  0  0
  -27.9186   13.7393  -16.6913 C   0  0  0  0  0  0  0  0  0  0  0  0
  -28.0706   12.2258  -16.7504 C   0  0  0  0  0  0  0  0  0  0  0  0
  -26.9383   11.5145  -16.0289 C   0  0  2  0  0  0  0  0  0  0  0  0
  -26.9447   11.8468  -14.5884 N   0  3  0  0  0  0  0  0  0  0  0  0
  -27.9392   11.9804  -14.2301 H   0  0  0  0  0  0  0  0  0  0  0  0
  -26.6055   11.1078  -13.9691 H   0  0  0  0  0  0  0  0  0  0  0  0
  -26.5061   12.7321  -14.3309 H   0  0  0  0  0  0  0  0  0  0  0  0
  -26.3839   15.5674  -16.0894 C   0  0  1  0  0  0  0  0  0  0  0  0
  -25.2846   16.4317  -16.7045 C   0  0  0  0  0  0  0  0  0  0  0  0
  -27.7374   16.3982  -15.9578 C   0  0  0  0  0  0  0  0  0  0  0  0
  -27.9692   16.9146  -14.8353 O   0  0  0  0  0  0  0  0  0  0  0  0
  -28.4593   16.4670  -17.0140 O   0  5  0  0  0  0  0  0  0  0  0  0
  2  3  1  0  0  0  0
  2  1  1  1  0  0  0
  2  7  1  0  0  0  0
  3  4  1  0  0  0  0
  4  5  1  0  0  0  0
  4 12  1  0  0  0  0
  5  6  1  0  0  0  0
  6  7  1  0  0  0  0
  7  8  1  1  0  0  0
  8  9  1  0  0  0  0
  8 10  1  0  0  0  0
  8 11  1  0  0  0  0
 12 13  1  6  0  0  0
 12 14  1  0  0  0  0
 14 15  2  0  0  0  0
 14 16  1  0  0  0  0
M  CHG  2   8   1  16  -1
M  END
>  <CHROM.0>
-48.56263743,51.38965713,-65.30038753,-39.91933479,-55.97188935,-58.04705919
-66.90642678,-178.37889116,-169.03886591

>  <CHROM.1>
70.00266394,155.11950508,137.23248285,-26.75824819,13.99691300,-16.19666611
-1.26298264,0.19672825,-0.07330166

>  <Name>
P136004391

>  <RI>
0

>  <Rbt.Current_Directory>
/home/fstefaniak/projects/zuza/docking/adenine/4TZX

>  <Rbt.Executable>
rbdock ($Id: //depot/dev/client3/rdock/2013.1/src/exe/rbdock.cxx#4 $)

>  <Rbt.Library>
libRbt.so (2013.1, Build901 2013/11/27)

>  <Rbt.Parameter_File>
/home/fstefaniak/progs/rDock//data/scripts/dock_solv.prm

>  <Rbt.Receptor>
4tzx.prm

>  <SCORE>
-33.9721

>  <SCORE.INTER>
-12.3979

>  <SCORE.INTER.CONST>
1

>  <SCORE.INTER.POLAR>
-2.56374

>  <SCORE.INTER.ROT>
2

>  <SCORE.INTER.SOLV>
17.6667

>  <SCORE.INTER.VDW>
-10.5417

>  <SCORE.INTER.norm>
-0.953686

>  <SCORE.INTRA>
-2.02727

>  <SCORE.INTRA.DIHEDRAL>
1.59405

>  <SCORE.INTRA.DIHEDRAL.0>
1.37702

>  <SCORE.INTRA.POLAR>
0.254146

>  <SCORE.INTRA.POLAR.0>
-0.254146

>  <SCORE.INTRA.REPUL>
0

>  <SCORE.INTRA.REPUL.0>
0

>  <SCORE.INTRA.SOLV>
-6.75387

>  <SCORE.INTRA.SOLV.lig_0>
-40.6066

>  <SCORE.INTRA.VDW>
-0.31145

>  <SCORE.INTRA.VDW.0>
2.25181

>  <SCORE.INTRA.norm>
-0.155944

>  <SCORE.RESTR>
0.318753

>  <SCORE.RESTR.CAVITY>
0.318753

>  <SCORE.RESTR.norm>
0.0245194

>  <SCORE.SYSTEM>
-19.8657

>  <SCORE.SYSTEM.CONST>
0

>  <SCORE.SYSTEM.DIHEDRAL>
5.79633

>  <SCORE.SYSTEM.POLAR>
-3.22701

>  <SCORE.SYSTEM.SOLV>
0.179617

>  <SCORE.SYSTEM.VDW>
-4.47904

>  <SCORE.SYSTEM.norm>
-1.52813

>  <SCORE.heavy>
13

>  <SCORE.norm>
-2.61324

$$$$
P136004391
 OpenBabel12072022113D
libRbt.so/2013.1/901 2013/11/27
 16 16  0  0  0  0  0  0  0  0999 V2000
  -25.2920   16.0944  -16.9576 C   0  0  0  0  0  0  0  0  0  0  0  0
  -26.1192   15.1264  -16.1086 C   0  0  2  0  0  0  0  0  0  0  0  0
  -25.2424   14.0073  -15.5429 C   0  0  0  0  0  0  0  0  0  0  0  0
  -25.9474   12.8683  -14.9411 N   0  0  0  0  0  0  0  0  0  0  0  0
  -27.3447   12.5863  -15.2853 C   0  0  0  0  0  0  0  0  0  0  0  0
  -28.1422   13.7368  -15.8833 C   0  0  0  0  0  0  0  0  0  0  0  0
  -27.3145   14.5497  -16.8644 C   0  0  2  0  0  0  0  0  0  0  0  0
  -26.9080   13.7209  -18.0192 N   0  3  0  0  0  0  0  0  0  0  0  0
  -27.7283   13.1505  -18.3894 H   0  0  0  0  0  0  0  0  0  0  0  0
  -26.6324   14.2420  -18.8542 H   0  0  0  0  0  0  0  0  0  0  0  0
  -26.2148   12.9959  -17.8284 H   0  0  0  0  0  0  0  0  0  0  0  0
  -25.0895   11.6236  -15.0688 C   0  0  1  0  0  0  0  0  0  0  0  0
  -24.6484   11.3937  -16.5133 C   0  0  0  0  0  0  0  0  0  0  0  0
  -23.8269   11.6369  -14.0965 C   0  0  0  0  0  0  0  0  0  0  0  0
  -23.6134   10.5841  -13.4434 O   0  0  0  0  0  0  0  0  0  0  0  0
  -23.1433   12.7203  -14.0783 O   0  5  0  0  0  0  0  0  0  0  0  0
  2  3  1  0  0  0  0
  2  1  1  6  0  0  0
  2  7  1  0  0  0  0
  3  4  1  0  0  0  0
  4  5  1  0  0  0  0
  4 12  1  0  0  0  0
  5  6  1  0  0  0  0
  6  7  1  0  0  0  0
  7  8  1  6  0  0  0
  8  9  1  0  0  0  0
  8 10  1  0  0  0  0
  8 11  1  0  0  0  0
 12 13  1  6  0  0  0
 12 14  1  0  0  0  0
 14 15  2  0  0  0  0
 14 16  1  0  0  0  0
M  CHG  2   8   1  16  -1
M  END
>  <CHROM.0>
-58.61207204,-176.43774147,-63.14190300,-43.35226066,-63.00197330,-62.87843118
-66.99945922,-58.47584634,-168.88194780

>  <CHROM.1>
-52.84999569,166.71513944,133.33415854,-25.56357237,13.11343024,-15.62765922
-2.25786826,0.39172526,2.73228751

>  <Name>
P136004391

>  <RI>
0

>  <Rbt.Current_Directory>
/home/fstefaniak/projects/zuza/docking/adenine/4TZX

>  <Rbt.Executable>
rbdock ($Id: //depot/dev/client3/rdock/2013.1/src/exe/rbdock.cxx#4 $)

>  <Rbt.Library>
libRbt.so (2013.1, Build901 2013/11/27)

>  <Rbt.Parameter_File>
/home/fstefaniak/progs/rDock//data/scripts/dock_solv.prm

>  <Rbt.Receptor>
4tzx.prm

>  <SCORE>
-33.6274

>  <SCORE.INTER>
-11.9523

>  <SCORE.INTER.CONST>
1

>  <SCORE.INTER.POLAR>
-2.44477

>  <SCORE.INTER.ROT>
2

>  <SCORE.INTER.SOLV>
17.0815

>  <SCORE.INTER.VDW>
-10.4461

>  <SCORE.INTER.norm>
-0.919409

>  <SCORE.INTRA>
-1.45681

>  <SCORE.INTRA.DIHEDRAL>
0.57552

>  <SCORE.INTRA.DIHEDRAL.0>
1.37702

>  <SCORE.INTRA.POLAR>
0.254146

>  <SCORE.INTRA.POLAR.0>
-0.254146

>  <SCORE.INTRA.REPUL>
0

>  <SCORE.INTRA.REPUL.0>
0

>  <SCORE.INTRA.SOLV>
-6.44097

>  <SCORE.INTRA.SOLV.lig_0>
-40.6066

>  <SCORE.INTRA.VDW>
0.611815

>  <SCORE.INTRA.VDW.0>
2.25181

>  <SCORE.INTRA.norm>
-0.112063

>  <SCORE.RESTR>
0.78071

>  <SCORE.RESTR.CAVITY>
0.78071

>  <SCORE.RESTR.norm>
0.0600547

>  <SCORE.SYSTEM>
-20.999

>  <SCORE.SYSTEM.CONST>
0

>  <SCORE.SYSTEM.DIHEDRAL>
4.34111

>  <SCORE.SYSTEM.POLAR>
-3.05796

>  <SCORE.SYSTEM.SOLV>
0.155878

>  <SCORE.SYSTEM.VDW>
-5.30513

>  <SCORE.SYSTEM.norm>
-1.61531

>  <SCORE.heavy>
13

>  <SCORE.norm>
-2.58672

$$$$
P136004391
 OpenBabel12072022113D
libRbt.so/2013.1/901 2013/11/27
 16 16  0  0  0  0  0  0  0  0999 V2000
  -24.4585   11.6817  -15.0125 C   0  0  0  0  0  0  0  0  0  0  0  0
  -25.6554   12.0086  -15.9083 C   0  0  2  0  0  0  0  0  0  0  0  0
  -25.9462   13.5107  -15.9073 C   0  0  0  0  0  0  0  0  0  0  0  0
  -27.2227   13.9277  -16.5018 N   0  0  0  0  0  0  0  0  0  0  0  0
  -28.3320   12.9779  -16.6350 C   0  0  0  0  0  0  0  0  0  0  0  0
  -27.9705   11.5000  -16.5837 C   0  0  0  0  0  0  0  0  0  0  0  0
  -26.9059   11.2136  -15.5383 C   0  0  2  0  0  0  0  0  0  0  0  0
  -27.4019   11.5365  -14.1836 N   0  3  0  0  0  0  0  0  0  0  0  0
  -28.2777   12.1416  -14.2300 H   0  0  0  0  0  0  0  0  0  0  0  0
  -27.7377   10.7383  -13.6406 H   0  0  0  0  0  0  0  0  0  0  0  0
  -26.7828   12.1042  -13.6032 H   0  0  0  0  0  0  0  0  0  0  0  0
  -27.6815   15.2184  -15.8496 C   0  0  1  0  0  0  0  0  0  0  0  0
  -26.7528   16.3810  -16.1955 C   0  0  0  0  0  0  0  0  0  0  0  0
  -29.1915   15.5886  -16.1996 C   0  0  0  0  0  0  0  0  0  0  0  0
  -29.9919   15.6442  -15.2319 O   0  0  0  0  0  0  0  0  0  0  0  0
  -29.4451   15.8023  -17.4372 O   0  5  0  0  0  0  0  0  0  0  0  0
  2  3  1  0  0  0  0
  2  1  1  1  0  0  0
  2  7  1  0  0  0  0
  3  4  1  0  0  0  0
  4  5  1  0  0  0  0
  4 12  1  0  0  0  0
  5  6  1  0  0  0  0
  6  7  1  0  0  0  0
  7  8  1  1  0  0  0
  8  9  1  0  0  0  0
  8 10  1  0  0  0  0
  8 11  1  0  0  0  0
 12 13  1  6  0  0  0
 12 14  1  0  0  0  0
 14 15  2  0  0  0  0
 14 16  1  0  0  0  0
M  CHG  2   8   1  16  -1
M  END
>  <CHROM.0>
-58.19436763,-174.54612056,-69.25242794,-43.81360490,-57.64849456,-175.58471048
-68.15670811,57.95935264,-169.07209590

>  <CHROM.1>
67.10217845,105.40821722,118.03758893,-27.48107720,13.62399913,-15.90783080
-0.97048796,-0.06880530,-0.19220837

>  <Name>
P136004391

>  <RI>
0

>  <Rbt.Current_Directory>
/home/fstefaniak/projects/zuza/docking/adenine/4TZX

>  <Rbt.Executable>
rbdock ($Id: //depot/dev/client3/rdock/2013.1/src/exe/rbdock.cxx#4 $)

>  <Rbt.Library>
libRbt.so (2013.1, Build901 2013/11/27)

>  <Rbt.Parameter_File>
/home/fstefaniak/progs/rDock//data/scripts/dock_solv.prm

>  <Rbt.Receptor>
4tzx.prm

>  <SCORE>
-33.1116

>  <SCORE.INTER>
-12.8897

>  <SCORE.INTER.CONST>
1

>  <SCORE.INTER.POLAR>
-3.35628

>  <SCORE.INTER.ROT>
2

>  <SCORE.INTER.SOLV>
20.2743

>  <SCORE.INTER.VDW>
-9.09695

>  <SCORE.INTER.norm>
-0.991515

>  <SCORE.INTRA>
-0.855886

>  <SCORE.INTRA.DIHEDRAL>
3.1451

>  <SCORE.INTRA.DIHEDRAL.0>
1.37702

>  <SCORE.INTRA.POLAR>
0.254146

>  <SCORE.INTRA.POLAR.0>
-0.254146

>  <SCORE.INTRA.REPUL>
0

>  <SCORE.INTRA.REPUL.0>
0

>  <SCORE.INTRA.SOLV>
-6.60109

>  <SCORE.INTRA.SOLV.lig_0>
-40.6066

>  <SCORE.INTRA.VDW>
0.00801723

>  <SCORE.INTRA.VDW.0>
2.25181

>  <SCORE.INTRA.norm>
-0.0658373

>  <SCORE.RESTR>
0.506297

>  <SCORE.RESTR.CAVITY>
0.506297

>  <SCORE.RESTR.norm>
0.038946

>  <SCORE.SYSTEM>
-19.8723

>  <SCORE.SYSTEM.CONST>
0

>  <SCORE.SYSTEM.DIHEDRAL>
4.80663

>  <SCORE.SYSTEM.POLAR>
-3.03798

>  <SCORE.SYSTEM.SOLV>
-0.139028

>  <SCORE.SYSTEM.VDW>
-4.67745

>  <SCORE.SYSTEM.norm>
-1.52864

>  <SCORE.heavy>
13

>  <SCORE.norm>
-2.54705

$$$$
P136023713
 OpenBabel12072022113D
libRbt.so/2013.1/901 2013/11/27
 14 14  0  0  0  0  0  0  0  0999 V2000
  -28.7805   14.2582  -16.3700 C   0  0  0  0  0  0  0  0  0  0  0  0
  -27.8451   15.4648  -16.3339 C   0  0  0  0  0  0  0  0  0  0  0  0
  -26.5200   14.9113  -16.0133 N   0  0  0  0  0  0  0  0  0  0  0  0
  -26.5595   13.4405  -16.0915 C   0  0  0  0  0  0  0  0  0  0  0  0
  -27.8799   13.1122  -16.8026 C   0  0  2  0  0  0  0  0  0  0  0  0
  -27.7088   13.1217  -18.2674 N   0  3  0  0  0  0  0  0  0  0  0  0
  -27.4036   14.0926  -18.5765 H   0  0  0  0  0  0  0  0  0  0  0  0
  -26.8759   12.6224  -18.5995 H   0  0  0  0  0  0  0  0  0  0  0  0
  -28.5103   12.8998  -18.8551 H   0  0  0  0  0  0  0  0  0  0  0  0
  -25.3903   15.6288  -16.3620 C   0  0  0  0  0  0  0  0  0  0  0  0
  -25.0158   16.8827  -16.0871 C   0  0  0  0  0  0  0  0  0  0  0  0
  -25.7176   17.9072  -15.2204 C   0  0  0  0  0  0  0  0  0  0  0  0
  -25.2478   19.0890  -15.2696 O   0  0  0  0  0  0  0  0  0  0  0  0
  -26.6473   17.4738  -14.4983 O   0  5  0  0  0  0  0  0  0  0  0  0
  1  2  1  0  0  0  0
  1  5  1  0  0  0  0
  2  3  1  0  0  0  0
  3  4  1  0  0  0  0
  3 10  1  0  0  0  0
  4  5  1  0  0  0  0
  5  6  1  6  0  0  0
  6  7  1  0  0  0  0
  6  8  1  0  0  0  0
  6  9  1  0  0  0  0
 10 11  2  0  0  0  0
 11 12  1  0  0  0  0
 12 13  2  0  0  0  0
 12 14  1  0  0  0  0
M  CHG  2   6   1  14  -1
M  END
>  <CHROM.0>
-57.83478934,-174.66125822,-63.50701492,-42.90643875,-175.41566362,-176.02935770
-67.87623916,-63.97758976,-168.76402834

>  <CHROM.1>
54.71464726,51.72305824,-170.63550066,-26.68783866,15.57176842,-16.14352429
1.99803822,-0.27790627,-2.62597977

>  <Name>
P136023713

>  <RI>
0

>  <Rbt.Current_Directory>
/home/fstefaniak/projects/zuza/docking/adenine/4TZX

>  <Rbt.Executable>
rbdock ($Id: //depot/dev/client3/rdock/2013.1/src/exe/rbdock.cxx#4 $)

>  <Rbt.Library>
libRbt.so (2013.1, Build901 2013/11/27)

>  <Rbt.Parameter_File>
/home/fstefaniak/progs/rDock//data/scripts/dock_solv.prm

>  <Rbt.Receptor>
4tzx.prm

>  <SCORE>
-51.4933

>  <SCORE.INTER>
-25.1426

>  <SCORE.INTER.CONST>
1

>  <SCORE.INTER.POLAR>
-4.33107

>  <SCORE.INTER.ROT>
2

>  <SCORE.INTER.SOLV>
24.7622

>  <SCORE.INTER.VDW>
-15.5122

>  <SCORE.INTER.norm>
-2.28569

>  <SCORE.INTRA>
-5.40423

>  <SCORE.INTRA.DIHEDRAL>
-2.83473

>  <SCORE.INTRA.DIHEDRAL.0>
4.2411

>  <SCORE.INTRA.POLAR>
0.105

>  <SCORE.INTRA.POLAR.0>
-0.105

>  <SCORE.INTRA.REPUL>
0

>  <SCORE.INTRA.REPUL.0>
0

>  <SCORE.INTRA.SOLV>
-7.32397

>  <SCORE.INTRA.SOLV.lig_0>
-44.431

>  <SCORE.INTRA.VDW>
-0.681876

>  <SCORE.INTRA.VDW.0>
0.305974

>  <SCORE.INTRA.norm>
-0.491294

>  <SCORE.RESTR>
0

>  <SCORE.RESTR.CAVITY>
0

>  <SCORE.RESTR.norm>
0

>  <SCORE.SYSTEM>
-20.9465

>  <SCORE.SYSTEM.CONST>
0

>  <SCORE.SYSTEM.DIHEDRAL>
4.72189

>  <SCORE.SYSTEM.POLAR>
-3.06802

>  <SCORE.SYSTEM.SOLV>
-0.149909

>  <SCORE.SYSTEM.VDW>
-5.26155

>  <SCORE.SYSTEM.norm>
-1.90422

>  <SCORE.heavy>
11

>  <SCORE.norm>
-4.68121

$$$$
P136023713
 OpenBabel12072022113D
libRbt.so/2013.1/901 2013/11/27
 14 14  0  0  0  0  0  0  0  0999 V2000
  -28.7505   14.3619  -16.4286 C   0  0  0  0  0  0  0  0  0  0  0  0
  -27.8575   15.5987  -16.3584 C   0  0  0  0  0  0  0  0  0  0  0  0
  -26.5094   15.0809  -16.0766 N   0  0  0  0  0  0  0  0  0  0  0  0
  -26.4985   13.6136  -16.2107 C   0  0  0  0  0  0  0  0  0  0  0  0
  -27.8167   13.2658  -16.9166 C   0  0  2  0  0  0  0  0  0  0  0  0
  -27.6672   13.3368  -18.3820 N   0  3  0  0  0  0  0  0  0  0  0  0
  -26.9317   12.6339  -18.6919 H   0  0  0  0  0  0  0  0  0  0  0  0
  -28.4501   12.9314  -18.9075 H   0  0  0  0  0  0  0  0  0  0  0  0
  -27.3798   14.2188  -18.8024 H   0  0  0  0  0  0  0  0  0  0  0  0
  -25.4106   15.8506  -16.4123 C   0  0  0  0  0  0  0  0  0  0  0  0
  -25.0584   17.0931  -16.0652 C   0  0  0  0  0  0  0  0  0  0  0  0
  -25.7556   18.0377  -15.1088 C   0  0  0  0  0  0  0  0  0  0  0  0
  -25.2957   19.2238  -15.0683 O   0  0  0  0  0  0  0  0  0  0  0  0
  -26.6716   17.5390  -14.4117 O   0  5  0  0  0  0  0  0  0  0  0  0
  1  2  1  0  0  0  0
  1  5  1  0  0  0  0
  2  3  1  0  0  0  0
  3  4  1  0  0  0  0
  3 10  1  0  0  0  0
  4  5  1  0  0  0  0
  5  6  1  6  0  0  0
  6  7  1  0  0  0  0
  6  8  1  0  0  0  0
  6  9  1  0  0  0  0
 10 11  2  0  0  0  0
 11 12  1  0  0  0  0
 12 13  2  0  0  0  0
 12 14  1  0  0  0  0
M  CHG  2   6   1  14  -1
M  END
>  <CHROM.0>
-58.73085207,-102.78719766,60.28746259,178.60433535,-67.09112968,-65.46998741
55.92171876,-61.80381948,-169.35161897

>  <CHROM.1>
56.80242541,173.89178299,-172.34035560,-26.68620651,15.72360629,-16.15383760
1.98316193,-0.31169773,-2.57220782

>  <Name>
P136023713

>  <RI>
0

>  <Rbt.Current_Directory>
/home/fstefaniak/projects/zuza/docking/adenine/4TZX

>  <Rbt.Executable>
rbdock ($Id: //depot/dev/client3/rdock/2013.1/src/exe/rbdock.cxx#4 $)

>  <Rbt.Library>
libRbt.so (2013.1, Build901 2013/11/27)

>  <Rbt.Parameter_File>
/home/fstefaniak/progs/rDock//data/scripts/dock_solv.prm

>  <Rbt.Receptor>
4tzx.prm

>  <SCORE>
-45.4873

>  <SCORE.INTER>
-25.1368

>  <SCORE.INTER.CONST>
1

>  <SCORE.INTER.POLAR>
-4.17098

>  <SCORE.INTER.ROT>
2

>  <SCORE.INTER.SOLV>
25.9997

>  <SCORE.INTER.VDW>
-16.4545

>  <SCORE.INTER.norm>
-2.28517

>  <SCORE.INTRA>
-6.20013

>  <SCORE.INTRA.DIHEDRAL>
-3.05604

>  <SCORE.INTRA.DIHEDRAL.0>
4.2411

>  <SCORE.INTRA.POLAR>
0.105

>  <SCORE.INTRA.POLAR.0>
-0.105

>  <SCORE.INTRA.REPUL>
0

>  <SCORE.INTRA.REPUL.0>
0

>  <SCORE.INTRA.SOLV>
-7.91586

>  <SCORE.INTRA.SOLV.lig_0>
-44.431

>  <SCORE.INTRA.VDW>
-1.07118

>  <SCORE.INTRA.VDW.0>
0.305974

>  <SCORE.INTRA.norm>
-0.563648

>  <SCORE.RESTR>
0

>  <SCORE.RESTR.CAVITY>
0

>  <SCORE.RESTR.norm>
0

>  <SCORE.SYSTEM>
-14.1504

>  <SCORE.SYSTEM.CONST>
0

>  <SCORE.SYSTEM.DIHEDRAL>
8.80314

>  <SCORE.SYSTEM.POLAR>
-2.43796

>  <SCORE.SYSTEM.SOLV>
-0.134769

>  <SCORE.SYSTEM.VDW>
-4.19649

>  <SCORE.SYSTEM.norm>
-1.2864

>  <SCORE.heavy>
11

>  <SCORE.norm>
-4.13521

$$$$
P136023713
 OpenBabel12072022113D
libRbt.so/2013.1/901 2013/11/27
 14 14  0  0  0  0  0  0  0  0999 V2000
  -26.3269   14.8670  -16.8903 C   0  0  0  0  0  0  0  0  0  0  0  0
  -27.2050   15.8926  -16.1767 C   0  0  0  0  0  0  0  0  0  0  0  0
  -28.5870   15.4907  -16.4824 N   0  0  0  0  0  0  0  0  0  0  0  0
  -28.5921   14.1659  -17.1274 C   0  0  0  0  0  0  0  0  0  0  0  0
  -27.1788   13.6079  -16.9081 C   0  0  2  0  0  0  0  0  0  0  0  0
  -27.0815   12.9067  -15.6143 N   0  3  0  0  0  0  0  0  0  0  0  0
  -27.7756   13.3358  -14.9321 H   0  0  0  0  0  0  0  0  0  0  0  0
  -27.4812   11.9614  -15.6140 H   0  0  0  0  0  0  0  0  0  0  0  0
  -26.1910   12.9128  -15.1202 H   0  0  0  0  0  0  0  0  0  0  0  0
  -29.6058   15.8931  -15.6382 C   0  0  0  0  0  0  0  0  0  0  0  0
  -30.4528   16.9260  -15.6996 C   0  0  0  0  0  0  0  0  0  0  0  0
  -30.5950   17.9644  -16.7926 C   0  0  0  0  0  0  0  0  0  0  0  0
  -31.4020   18.9179  -16.5488 O   0  0  0  0  0  0  0  0  0  0  0  0
  -29.9521   17.7456  -17.8473 O   0  5  0  0  0  0  0  0  0  0  0  0
  1  2  1  0  0  0  0
  1  5  1  0  0  0  0
  2  3  1  0  0  0  0
  3  4  1  0  0  0  0
  3 10  1  0  0  0  0
  4  5  1  0  0  0  0
  5  6  1  1  0  0  0
  6  7  1  0  0  0  0
  6  8  1  0  0  0  0
  6  9  1  0  0  0  0
 10 11  2  0  0  0  0
 11 12  1  0  0  0  0
 12 13  2  0  0  0  0
 12 14  1  0  0  0  0
M  CHG  2   6   1  14  -1
M  END
>  <CHROM.0>
-60.87385692,-177.70788699,-61.77106568,-41.32126344,-55.68963065,-56.40448278
-64.69913234,-172.84861419,-170.33386501

>  <CHROM.1>
96.25998612,84.20136089,-173.89020372,-28.80321562,15.83530747,-16.51758526
-0.73525181,0.51228749,-0.58173036

>  <Name>
P136023713

>  <RI>
0

>  <Rbt.Current_Directory>
/home/fstefaniak/projects/zuza/docking/adenine/4TZX

>  <Rbt.Executable>
rbdock ($Id: //depot/dev/client3/rdock/2013.1/src/exe/rbdock.cxx#4 $)

>  <Rbt.Library>
libRbt.so (2013.1, Build901 2013/11/27)

>  <Rbt.Parameter_File>
/home/fstefaniak/progs/rDock//data/scripts/dock_solv.prm

>  <Rbt.Receptor>
4tzx.prm

>  <SCORE>
-44.3201

>  <SCORE.INTER>
-17.8241

>  <SCORE.INTER.CONST>
1

>  <SCORE.INTER.POLAR>
-2.30818

>  <SCORE.INTER.ROT>
2

>  <SCORE.INTER.SOLV>
20.3875

>  <SCORE.INTER.VDW>
-15.918

>  <SCORE.INTER.norm>
-1.62038

>  <SCORE.INTRA>
-5.79521

>  <SCORE.INTRA.DIHEDRAL>
-2.56714

>  <SCORE.INTRA.DIHEDRAL.0>
4.2411

>  <SCORE.INTRA.POLAR>
0.105

>  <SCORE.INTRA.POLAR.0>
-0.105

>  <SCORE.INTRA.REPUL>
0

>  <SCORE.INTRA.REPUL.0>
0

>  <SCORE.INTRA.SOLV>
-7.85072

>  <SCORE.INTRA.SOLV.lig_0>
-44.431

>  <SCORE.INTRA.VDW>
-0.943288

>  <SCORE.INTRA.VDW.0>
0.305974

>  <SCORE.INTRA.norm>
-0.526838

>  <SCORE.RESTR>
0

>  <SCORE.RESTR.CAVITY>
0

>  <SCORE.RESTR.norm>
0

>  <SCORE.SYSTEM>
-20.7008

>  <SCORE.SYSTEM.CONST>
0

>  <SCORE.SYSTEM.DIHEDRAL>
4.59894

>  <SCORE.SYSTEM.POLAR>
-3.05677

>  <SCORE.SYSTEM.SOLV>
0.0523635

>  <SCORE.SYSTEM.VDW>
-5.16172

>  <SCORE.SYSTEM.norm>
-1.88189

>  <SCORE.heavy>
11

>  <SCORE.norm>
-4.0291

$$$$
P136172721
 OpenBabel12072022113D
libRbt.so/2013.1/901 2013/11/27
 14 14  0  0  0  0  0  0  0  0999 V2000
  -30.6041   18.0902  -14.0886 H   0  0  0  0  0  0  0  0  0  0  0  0
  -31.2958   18.3748  -14.7903 N   0  0  0  0  0  0  0  0  0  0  0  0
  -30.8585   18.1503  -15.9778 C   0  0  0  0  0  0  0  0  0  0  0  0
  -29.5183   17.5552  -16.3878 C   0  0  2  0  0  0  0  0  0  0  0  0
  -29.6735   17.6544  -17.8188 N   0  0  0  0  0  0  0  0  0  0  0  0
  -30.8834   18.2009  -18.1875 C   0  0  0  0  0  0  0  0  0  0  0  0
  -31.2261   18.4281  -19.3335 O   0  0  0  0  0  0  0  0  0  0  0  0
  -31.5937   18.4578  -17.0642 N   0  0  0  0  0  0  0  0  0  0  0  0
  -29.3719   16.1157  -15.9014 C   0  0  0  0  0  0  0  0  0  0  0  0
  -28.2437   15.3227  -16.5898 C   0  0  0  0  0  0  0  0  0  0  0  0
  -26.8617   15.9128  -16.3044 C   0  0  0  0  0  0  0  0  0  0  0  0
  -28.2849   13.8624  -16.1309 C   0  0  0  0  0  0  0  0  0  0  0  0
  -28.9660   17.4561  -18.5138 H   0  0  0  0  0  0  0  0  0  0  0  0
  -32.5014   18.8893  -17.0475 H   0  0  0  0  0  0  0  0  0  0  0  0
  1  2  1  0  0  0  0
  2  3  2  0  0  0  0
  3  4  1  0  0  0  0
  3  8  1  0  0  0  0
  4  5  1  0  0  0  0
  4  9  1  6  0  0  0
  5  6  1  0  0  0  0
  5 13  1  0  0  0  0
  6  7  2  0  0  0  0
  6  8  1  0  0  0  0
  8 14  1  0  0  0  0
  9 10  1  0  0  0  0
 10 11  1  0  0  0  0
 10 12  1  0  0  0  0
M  END
>  <CHROM.0>
-58.48750165,-58.00424677,-66.00130754,-42.66360408,-170.91924385,-57.89660288
-69.18901930,-54.43604331,-168.63957136

>  <CHROM.1>
163.92720023,63.61227636,-29.79130689,17.08288308,-16.78821837,2.78919457
0.76852943,-1.45268345

>  <Name>
P136172721

>  <RI>
0

>  <Rbt.Current_Directory>
/home/fstefaniak/projects/zuza/docking/adenine/4TZX

>  <Rbt.Executable>
rbdock ($Id: //depot/dev/client3/rdock/2013.1/src/exe/rbdock.cxx#4 $)

>  <Rbt.Library>
libRbt.so (2013.1, Build901 2013/11/27)

>  <Rbt.Parameter_File>
/home/fstefaniak/progs/rDock//data/scripts/dock_solv.prm

>  <Rbt.Receptor>
4tzx.prm

>  <SCORE>
-44.0812

>  <SCORE.INTER>
-23.458

>  <SCORE.INTER.CONST>
1

>  <SCORE.INTER.POLAR>
-1.85912

>  <SCORE.INTER.ROT>
2

>  <SCORE.INTER.SOLV>
13.0742

>  <SCORE.INTER.VDW>
-18.733

>  <SCORE.INTER.norm>
-2.13255

>  <SCORE.INTRA>
0.412283

>  <SCORE.INTRA.DIHEDRAL>
0.843308

>  <SCORE.INTRA.DIHEDRAL.0>
0.303033

>  <SCORE.INTRA.POLAR>
0

>  <SCORE.INTRA.POLAR.0>
0

>  <SCORE.INTRA.REPUL>
0

>  <SCORE.INTRA.REPUL.0>
0

>  <SCORE.INTRA.SOLV>
0.0908778

>  <SCORE.INTRA.SOLV.lig_0>
-16.8277

>  <SCORE.INTRA.VDW>
-0.0548101

>  <SCORE.INTRA.VDW.0>
-0.284868

>  <SCORE.INTRA.norm>
0.0374803

>  <SCORE.RESTR>
0

>  <SCORE.RESTR.CAVITY>
0

>  <SCORE.RESTR.norm>
0

>  <SCORE.SYSTEM>
-21.0354

>  <SCORE.SYSTEM.CONST>
0

>  <SCORE.SYSTEM.DIHEDRAL>
5.13479

>  <SCORE.SYSTEM.POLAR>
-3.08084

>  <SCORE.SYSTEM.SOLV>
0.0115223

>  <SCORE.SYSTEM.VDW>
-5.46959

>  <SCORE.SYSTEM.norm>
-1.91231

>  <SCORE.heavy>
11

>  <SCORE.norm>
-4.00738

$$$$
P136172721
 OpenBabel12072022113D
libRbt.so/2013.1/901 2013/11/27
 14 14  0  0  0  0  0  0  0  0999 V2000
  -30.6582   18.0901  -14.0711 H   0  0  0  0  0  0  0  0  0  0  0  0
  -31.3446   18.3619  -14.7831 N   0  0  0  0  0  0  0  0  0  0  0  0
  -30.8859   18.1445  -15.9638 C   0  0  0  0  0  0  0  0  0  0  0  0
  -29.5294   17.5732  -16.3537 C   0  0  2  0  0  0  0  0  0  0  0  0
  -29.6653   17.6686  -17.7868 N   0  0  0  0  0  0  0  0  0  0  0  0
  -30.8793   18.1931  -18.1737 C   0  0  0  0  0  0  0  0  0  0  0  0
  -31.2093   18.4133  -19.3249 O   0  0  0  0  0  0  0  0  0  0  0  0
  -31.6106   18.4379  -17.0612 N   0  0  0  0  0  0  0  0  0  0  0  0
  -29.3643   16.1369  -15.8638 C   0  0  0  0  0  0  0  0  0  0  0  0
  -28.2751   15.3338  -16.6016 C   0  0  0  0  0  0  0  0  0  0  0  0
  -26.8664   15.8367  -16.2820 C   0  0  0  0  0  0  0  0  0  0  0  0
  -28.3886   13.8517  -16.2341 C   0  0  0  0  0  0  0  0  0  0  0  0
  -28.9443   17.4826  -18.4712 H   0  0  0  0  0  0  0  0  0  0  0  0
  -32.5260   18.8531  -17.0582 H   0  0  0  0  0  0  0  0  0  0  0  0
  1  2  1  0  0  0  0
  2  3  2  0  0  0  0
  3  4  1  0  0  0  0
  3  8  1  0  0  0  0
  4  5  1  0  0  0  0
  4  9  1  6  0  0  0
  5  6  1  0  0  0  0
  5 13  1  0  0  0  0
  6  7  2  0  0  0  0
  6  8  1  0  0  0  0
  8 14  1  0  0  0  0
  9 10  1  0  0  0  0
 10 11  1  0  0  0  0
 10 12  1  0  0  0  0
M  END
>  <CHROM.0>
-63.51529745,-58.81249133,-63.90481326,-42.31763328,-56.39970583,-55.50633461
-67.79623605,-61.45079466,-168.93450186

>  <CHROM.1>
159.98533404,69.18038128,-29.81031834,17.07450303,-16.78362232,2.80379461
0.77354148,-1.45482188

>  <Name>
P136172721

>  <RI>
0

>  <Rbt.Current_Directory>
/home/fstefaniak/projects/zuza/docking/adenine/4TZX

>  <Rbt.Executable>
rbdock ($Id: //depot/dev/client3/rdock/2013.1/src/exe/rbdock.cxx#4 $)

>  <Rbt.Library>
libRbt.so (2013.1, Build901 2013/11/27)

>  <Rbt.Parameter_File>
/home/fstefaniak/progs/rDock//data/scripts/dock_solv.prm

>  <Rbt.Receptor>
4tzx.prm

>  <SCORE>
-44.0636

>  <SCORE.INTER>
-23.707

>  <SCORE.INTER.CONST>
1

>  <SCORE.INTER.POLAR>
-1.86824

>  <SCORE.INTER.ROT>
2

>  <SCORE.INTER.SOLV>
13.0809

>  <SCORE.INTER.VDW>
-18.8708

>  <SCORE.INTER.norm>
-2.15518

>  <SCORE.INTRA>
0.668275

>  <SCORE.INTRA.DIHEDRAL>
1.55057

>  <SCORE.INTRA.DIHEDRAL.0>
0.303033

>  <SCORE.INTRA.POLAR>
0

>  <SCORE.INTRA.POLAR.0>
0

>  <SCORE.INTRA.REPUL>
0

>  <SCORE.INTRA.REPUL.0>
0

>  <SCORE.INTRA.SOLV>
0.104248

>  <SCORE.INTRA.SOLV.lig_0>
-16.8277

>  <SCORE.INTRA.VDW>
-0.159136

>  <SCORE.INTRA.VDW.0>
-0.284868

>  <SCORE.INTRA.norm>
0.0607523

>  <SCORE.RESTR>
0

>  <SCORE.RESTR.CAVITY>
0

>  <SCORE.RESTR.norm>
0

>  <SCORE.SYSTEM>
-21.0249

>  <SCORE.SYSTEM.CONST>
0

>  <SCORE.SYSTEM.DIHEDRAL>
4.62572

>  <SCORE.SYSTEM.POLAR>
-3.06632

>  <SCORE.SYSTEM.SOLV>
0.192416

>  <SCORE.SYSTEM.VDW>
-5.40158

>  <SCORE.SYSTEM.norm>
-1.91135

>  <SCORE.heavy>
11

>  <SCORE.norm>
-4.00578

$$$$
P136172721
 OpenBabel12072022113D
libRbt.so/2013.1/901 2013/11/27
 14 14  0  0  0  0  0  0  0  0999 V2000
  -30.6773   18.0363  -14.0791 H   0  0  0  0  0  0  0  0  0  0  0  0
  -31.3584   18.3271  -14.7886 N   0  0  0  0  0  0  0  0  0  0  0  0
  -30.8947   18.1328  -15.9713 C   0  0  0  0  0  0  0  0  0  0  0  0
  -29.5391   17.5628  -16.3664 C   0  0  2  0  0  0  0  0  0  0  0  0
  -29.6670   17.6900  -17.7979 N   0  0  0  0  0  0  0  0  0  0  0  0
  -30.8761   18.2292  -18.1796 C   0  0  0  0  0  0  0  0  0  0  0  0
  -31.1987   18.4762  -19.3274 O   0  0  0  0  0  0  0  0  0  0  0  0
  -31.6119   18.4539  -17.0659 N   0  0  0  0  0  0  0  0  0  0  0  0
  -29.3843   16.1153  -15.9070 C   0  0  0  0  0  0  0  0  0  0  0  0
  -28.2353   15.3494  -16.5916 C   0  0  0  0  0  0  0  0  0  0  0  0
  -26.8628   15.9245  -16.2381 C   0  0  0  0  0  0  0  0  0  0  0  0
  -28.2920   13.8714  -16.1955 C   0  0  0  0  0  0  0  0  0  0  0  0
  -28.9433   17.5148  -18.4824 H   0  0  0  0  0  0  0  0  0  0  0  0
  -32.5251   18.8739  -17.0586 H   0  0  0  0  0  0  0  0  0  0  0  0
  1  2  1  0  0  0  0
  2  3  2  0  0  0  0
  3  4  1  0  0  0  0
  3  8  1  0  0  0  0
  4  5  1  0  0  0  0
  4  9  1  6  0  0  0
  5  6  1  0  0  0  0
  5 13  1  0  0  0  0
  6  7  2  0  0  0  0
  6  8  1  0  0  0  0
  8 14  1  0  0  0  0
  9 10  1  0  0  0  0
 10 11  1  0  0  0  0
 10 12  1  0  0  0  0
M  END
>  <CHROM.0>
-59.42765921,-57.21578446,-62.02491141,-42.12619028,-173.41970454,-56.40932007
-64.55032079,-57.05283297,-169.01539816

>  <CHROM.1>
163.75993895,65.25428303,-29.80084660,17.09201130,-16.78308950,2.77070872
0.75814851,-1.42230784

>  <Name>
P136172721

>  <RI>
0

>  <Rbt.Current_Directory>
/home/fstefaniak/projects/zuza/docking/adenine/4TZX

>  <Rbt.Executable>
rbdock ($Id: //depot/dev/client3/rdock/2013.1/src/exe/rbdock.cxx#4 $)

>  <Rbt.Library>
libRbt.so (2013.1, Build901 2013/11/27)

>  <Rbt.Parameter_File>
/home/fstefaniak/progs/rDock//data/scripts/dock_solv.prm

>  <Rbt.Receptor>
4tzx.prm

>  <SCORE>
-44.0609

>  <SCORE.INTER>
-23.4324

>  <SCORE.INTER.CONST>
1

>  <SCORE.INTER.POLAR>
-1.83914

>  <SCORE.INTER.ROT>
2

>  <SCORE.INTER.SOLV>
13.0865

>  <SCORE.INTER.VDW>
-18.7866

>  <SCORE.INTER.norm>
-2.13021

>  <SCORE.INTRA>
0.408296

>  <SCORE.INTRA.DIHEDRAL>
0.924349

>  <SCORE.INTRA.DIHEDRAL.0>
0.303033

>  <SCORE.INTRA.POLAR>
0

>  <SCORE.INTRA.POLAR.0>
0

>  <SCORE.INTRA.REPUL>
0

>  <SCORE.INTRA.REPUL.0>
0

>  <SCORE.INTRA.SOLV>
0.0877023

>  <SCORE.INTRA.SOLV.lig_0>
-16.8277

>  <SCORE.INTRA.VDW>
-0.0977296

>  <SCORE.INTRA.VDW.0>
-0.284868

>  <SCORE.INTRA.norm>
0.0371178

>  <SCORE.RESTR>
0

>  <SCORE.RESTR.CAVITY>
0

>  <SCORE.RESTR.norm>
0

>  <SCORE.SYSTEM>
-21.0369

>  <SCORE.SYSTEM.CONST>
0

>  <SCORE.SYSTEM.DIHEDRAL>
4.52433

>  <SCORE.SYSTEM.POLAR>
-3.08386

>  <SCORE.SYSTEM.SOLV>
0.030198

>  <SCORE.SYSTEM.VDW>
-5.26325

>  <SCORE.SYSTEM.norm>
-1.91244

>  <SCORE.heavy>
11

>  <SCORE.norm>
-4.00554

$$$$
P136172723
 OpenBabel12072022113D
libRbt.so/2013.1/901 2013/11/27
 14 14  0  0  0  0  0  0  0  0999 V2000
  -30.9906   17.6774  -14.3385 H   0  0  0  0  0  0  0  0  0  0  0  0
  -31.1941   18.4531  -14.9776 N   0  0  0  0  0  0  0  0  0  0  0  0
  -30.7192   18.2161  -16.1480 C   0  0  0  0  0  0  0  0  0  0  0  0
  -29.9553   16.9864  -16.6211 C   0  0  1  0  0  0  0  0  0  0  0  0
  -29.7822   17.3649  -18.0025 N   0  0  0  0  0  0  0  0  0  0  0  0
  -30.3522   18.5844  -18.2967 C   0  0  0  0  0  0  0  0  0  0  0  0
  -30.3879   19.0886  -19.4043 O   0  0  0  0  0  0  0  0  0  0  0  0
  -30.8777   19.0939  -17.1581 N   0  0  0  0  0  0  0  0  0  0  0  0
  -28.6349   16.8211  -15.8733 C   0  0  0  0  0  0  0  0  0  0  0  0
  -27.6506   15.8297  -16.5248 C   0  0  0  0  0  0  0  0  0  0  0  0
  -26.2282   16.1194  -16.0377 C   0  0  0  0  0  0  0  0  0  0  0  0
  -28.0097   14.3728  -16.2297 C   0  0  0  0  0  0  0  0  0  0  0  0
  -29.4040   16.7846  -18.7394 H   0  0  0  0  0  0  0  0  0  0  0  0
  -31.3764   19.9644  -17.0975 H   0  0  0  0  0  0  0  0  0  0  0  0
  1  2  1  0  0  0  0
  2  3  2  0  0  0  0
  3  4  1  0  0  0  0
  3  8  1  0  0  0  0
  4  5  1  0  0  0  0
  4  9  1  1  0  0  0
  5  6  1  0  0  0  0
  5 13  1  0  0  0  0
  6  7  2  0  0  0  0
  6  8  1  0  0  0  0
  8 14  1  0  0  0  0
  9 10  1  0  0  0  0
 10 11  1  0  0  0  0
 10 12  1  0  0  0  0
M  END
>  <CHROM.0>
-62.03985130,-52.79935983,-60.35879883,-42.66409939,-56.85492600,-63.75474275
-70.86618608,-58.13781803,-168.20976965

>  <CHROM.1>
-165.23838928,158.88684992,-29.41933759,17.35206357,-16.85782328,2.63771679
0.68451480,-1.28220840

>  <Name>
P136172723

>  <RI>
0

>  <Rbt.Current_Directory>
/home/fstefaniak/projects/zuza/docking/adenine/4TZX

>  <Rbt.Executable>
rbdock ($Id: //depot/dev/client3/rdock/2013.1/src/exe/rbdock.cxx#4 $)

>  <Rbt.Library>
libRbt.so (2013.1, Build901 2013/11/27)

>  <Rbt.Parameter_File>
/home/fstefaniak/progs/rDock//data/scripts/dock_solv.prm

>  <Rbt.Receptor>
4tzx.prm

>  <SCORE>
-50.6802

>  <SCORE.INTER>
-30.7595

>  <SCORE.INTER.CONST>
1

>  <SCORE.INTER.POLAR>
-2.93505

>  <SCORE.INTER.ROT>
2

>  <SCORE.INTER.SOLV>
13.8404

>  <SCORE.INTER.VDW>
-20.2697

>  <SCORE.INTER.norm>
-2.79632

>  <SCORE.INTRA>
0.824533

>  <SCORE.INTRA.DIHEDRAL>
2.35635

>  <SCORE.INTRA.DIHEDRAL.0>
0.3639

>  <SCORE.INTRA.POLAR>
0

>  <SCORE.INTRA.POLAR.0>
0

>  <SCORE.INTRA.REPUL>
0

>  <SCORE.INTRA.REPUL.0>
0

>  <SCORE.INTRA.SOLV>
0.0295738

>  <SCORE.INTRA.SOLV.lig_0>
-16.8173

>  <SCORE.INTRA.VDW>
-0.36843

>  <SCORE.INTRA.VDW.0>
-0.254075

>  <SCORE.INTRA.norm>
0.0749575

>  <SCORE.RESTR>
0

>  <SCORE.RESTR.CAVITY>
0

>  <SCORE.RESTR.norm>
0

>  <SCORE.SYSTEM>
-20.7452

>  <SCORE.SYSTEM.CONST>
0

>  <SCORE.SYSTEM.DIHEDRAL>
4.99576

>  <SCORE.SYSTEM.POLAR>
-3.05774

>  <SCORE.SYSTEM.SOLV>
0.189056

>  <SCORE.SYSTEM.VDW>
-5.36593

>  <SCORE.SYSTEM.norm>
-1.88593

>  <SCORE.heavy>
11

>  <SCORE.norm>
-4.60729

$$$$
P136172723
 OpenBabel12072022113D
libRbt.so/2013.1/901 2013/11/27
 14 14  0  0  0  0  0  0  0  0999 V2000
  -31.0204   17.6809  -14.3340 H   0  0  0  0  0  0  0  0  0  0  0  0
  -31.2114   18.4598  -14.9731 N   0  0  0  0  0  0  0  0  0  0  0  0
  -30.7382   18.2162  -16.1429 C   0  0  0  0  0  0  0  0  0  0  0  0
  -29.9920   16.9755  -16.6153 C   0  0  1  0  0  0  0  0  0  0  0  0
  -29.8112   17.3519  -17.9962 N   0  0  0  0  0  0  0  0  0  0  0  0
  -30.3626   18.5798  -18.2908 C   0  0  0  0  0  0  0  0  0  0  0  0
  -30.3891   19.0849  -19.3983 O   0  0  0  0  0  0  0  0  0  0  0  0
  -30.8822   19.0966  -17.1529 N   0  0  0  0  0  0  0  0  0  0  0  0
  -28.6753   16.7904  -15.8655 C   0  0  0  0  0  0  0  0  0  0  0  0
  -27.7210   15.7562  -16.4945 C   0  0  0  0  0  0  0  0  0  0  0  0
  -26.2820   16.0523  -16.0632 C   0  0  0  0  0  0  0  0  0  0  0  0
  -28.0869   14.3201  -16.1172 C   0  0  0  0  0  0  0  0  0  0  0  0
  -29.4404   16.7663  -18.7328 H   0  0  0  0  0  0  0  0  0  0  0  0
  -31.3680   19.9744  -17.0927 H   0  0  0  0  0  0  0  0  0  0  0  0
  1  2  1  0  0  0  0
  2  3  2  0  0  0  0
  3  4  1  0  0  0  0
  3  8  1  0  0  0  0
  4  5  1  0  0  0  0
  4  9  1  1  0  0  0
  5  6  1  0  0  0  0
  5 13  1  0  0  0  0
  6  7  2  0  0  0  0
  6  8  1  0  0  0  0
  8 14  1  0  0  0  0
  9 10  1  0  0  0  0
 10 11  1  0  0  0  0
 10 12  1  0  0  0  0
M  END
>  <CHROM.0>
-60.72391487,-51.93610914,-61.81518577,-43.77333633,-174.95089491,-175.14005625
-65.28203107,-55.02157184,-169.48747170

>  <CHROM.1>
-166.83872394,156.52519184,-29.45200508,17.32951194,-16.84265496,2.61133925
0.69374130,-1.25993950

>  <Name>
P136172723

>  <RI>
0

>  <Rbt.Current_Directory>
/home/fstefaniak/projects/zuza/docking/adenine/4TZX

>  <Rbt.Executable>
rbdock ($Id: //depot/dev/client3/rdock/2013.1/src/exe/rbdock.cxx#4 $)

>  <Rbt.Library>
libRbt.so (2013.1, Build901 2013/11/27)

>  <Rbt.Parameter_File>
/home/fstefaniak/progs/rDock//data/scripts/dock_solv.prm

>  <Rbt.Receptor>
4tzx.prm

>  <SCORE>
-50.6566

>  <SCORE.INTER>
-30.8735

>  <SCORE.INTER.CONST>
1

>  <SCORE.INTER.POLAR>
-2.92307

>  <SCORE.INTER.ROT>
2

>  <SCORE.INTER.SOLV>
13.8522

>  <SCORE.INTER.VDW>
-20.3895

>  <SCORE.INTER.norm>
-2.80668

>  <SCORE.INTRA>
0.885826

>  <SCORE.INTRA.DIHEDRAL>
2.58817

>  <SCORE.INTRA.DIHEDRAL.0>
0.3639

>  <SCORE.INTRA.POLAR>
0

>  <SCORE.INTRA.POLAR.0>
0

>  <SCORE.INTRA.REPUL>
0

>  <SCORE.INTRA.REPUL.0>
0

>  <SCORE.INTRA.SOLV>
0.0156933

>  <SCORE.INTRA.SOLV.lig_0>
-16.8173

>  <SCORE.INTRA.VDW>
-0.416108

>  <SCORE.INTRA.VDW.0>
-0.254075

>  <SCORE.INTRA.norm>
0.0805296

>  <SCORE.RESTR>
0

>  <SCORE.RESTR.CAVITY>
0

>  <SCORE.RESTR.norm>
0

>  <SCORE.SYSTEM>
-20.669

>  <SCORE.SYSTEM.CONST>
0

>  <SCORE.SYSTEM.DIHEDRAL>
4.58868

>  <SCORE.SYSTEM.POLAR>
-3.03332

>  <SCORE.SYSTEM.SOLV>
-0.0918409

>  <SCORE.SYSTEM.VDW>
-5.1672

>  <SCORE.SYSTEM.norm>
-1.879

>  <SCORE.heavy>
11

>  <SCORE.norm>
-4.60515

$$$$
P136172723
 OpenBabel12072022113D
libRbt.so/2013.1/901 2013/11/27
 14 14  0  0  0  0  0  0  0  0999 V2000
  -31.0633   17.6753  -14.3669 H   0  0  0  0  0  0  0  0  0  0  0  0
  -31.2516   18.4578  -15.0023 N   0  0  0  0  0  0  0  0  0  0  0  0
  -30.7624   18.2264  -16.1680 C   0  0  0  0  0  0  0  0  0  0  0  0
  -30.0020   16.9944  -16.6405 C   0  0  1  0  0  0  0  0  0  0  0  0
  -29.8067   17.3827  -18.0162 N   0  0  0  0  0  0  0  0  0  0  0  0
  -30.3627   18.6092  -18.3082 C   0  0  0  0  0  0  0  0  0  0  0  0
  -30.3789   19.1226  -19.4121 O   0  0  0  0  0  0  0  0  0  0  0  0
  -30.8998   19.1137  -17.1728 N   0  0  0  0  0  0  0  0  0  0  0  0
  -28.6935   16.8123  -15.8760 C   0  0  0  0  0  0  0  0  0  0  0  0
  -27.7289   15.7817  -16.4953 C   0  0  0  0  0  0  0  0  0  0  0  0
  -26.2947   16.0873  -16.0547 C   0  0  0  0  0  0  0  0  0  0  0  0
  -28.0892   14.3447  -16.1163 C   0  0  0  0  0  0  0  0  0  0  0  0
  -29.4229   16.8053  -18.7526 H   0  0  0  0  0  0  0  0  0  0  0  0
  -31.3923   19.9877  -17.1120 H   0  0  0  0  0  0  0  0  0  0  0  0
  1  2  1  0  0  0  0
  2  3  2  0  0  0  0
  3  4  1  0  0  0  0
  3  8  1  0  0  0  0
  4  5  1  0  0  0  0
  4  9  1  1  0  0  0
  5  6  1  0  0  0  0
  5 13  1  0  0  0  0
  6  7  2  0  0  0  0
  6  8  1  0  0  0  0
  8 14  1  0  0  0  0
  9 10  1  0  0  0  0
 10 11  1  0  0  0  0
 10 12  1  0  0  0  0
M  END
>  <CHROM.0>
-58.33231217,-52.02323330,-64.88304641,-41.65539064,-55.30460089,-56.92068161
-62.94869253,-56.59099595,-167.18774247

>  <CHROM.1>
-167.26552149,156.14247688,-29.46259738,17.35238215,-16.85628698,2.59450446
0.68296612,-1.24095621

>  <Name>
P136172723

>  <RI>
0

>  <Rbt.Current_Directory>
/home/fstefaniak/projects/zuza/docking/adenine/4TZX

>  <Rbt.Executable>
rbdock ($Id: //depot/dev/client3/rdock/2013.1/src/exe/rbdock.cxx#4 $)

>  <Rbt.Library>
libRbt.so (2013.1, Build901 2013/11/27)

>  <Rbt.Parameter_File>
/home/fstefaniak/progs/rDock//data/scripts/dock_solv.prm

>  <Rbt.Receptor>
4tzx.prm

>  <SCORE>
-50.5139

>  <SCORE.INTER>
-30.8587

>  <SCORE.INTER.CONST>
1

>  <SCORE.INTER.POLAR>
-2.9534

>  <SCORE.INTER.ROT>
2

>  <SCORE.INTER.SOLV>
13.9222

>  <SCORE.INTER.VDW>
-20.3019

>  <SCORE.INTER.norm>
-2.80533

>  <SCORE.INTRA>
0.881628

>  <SCORE.INTRA.DIHEDRAL>
2.61554

>  <SCORE.INTRA.DIHEDRAL.0>
0.3639

>  <SCORE.INTRA.POLAR>
0

>  <SCORE.INTRA.POLAR.0>
0

>  <SCORE.INTRA.REPUL>
0

>  <SCORE.INTRA.REPUL.0>
0

>  <SCORE.INTRA.SOLV>
0.0124211

>  <SCORE.INTRA.SOLV.lig_0>
-16.8173

>  <SCORE.INTRA.VDW>
-0.432352

>  <SCORE.INTRA.VDW.0>
-0.254075

>  <SCORE.INTRA.norm>
0.080148

>  <SCORE.RESTR>
0

>  <SCORE.RESTR.CAVITY>
0

>  <SCORE.RESTR.norm>
0

>  <SCORE.SYSTEM>
-20.5369

>  <SCORE.SYSTEM.CONST>
0

>  <SCORE.SYSTEM.DIHEDRAL>
4.99344

>  <SCORE.SYSTEM.POLAR>
-3.10389

>  <SCORE.SYSTEM.SOLV>
0.229761

>  <SCORE.SYSTEM.VDW>
-5.086

>  <SCORE.SYSTEM.norm>
-1.86699

>  <SCORE.heavy>
11

>  <SCORE.norm>
-4.59217

$$$$
P136187106
 OpenBabel12072022113D
libRbt.so/2013.1/901 2013/11/27
 15 16  0  0  0  0  0  0  0  0999 V2000
  -30.1201   18.1745  -13.6153 H   0  0  0  0  0  0  0  0  0  0  0  0
  -29.5988   17.3836  -14.0013 N   0  0  0  0  0  0  0  0  0  0  0  0
  -29.6950   17.3653  -15.2822 C   0  0  0  0  0  0  0  0  0  0  0  0
  -29.0691   16.3519  -16.2338 C   0  0  2  0  0  0  0  0  0  0  0  0
  -29.5096   14.9157  -15.9984 C   0  0  0  0  0  0  0  0  0  0  0  0
  -28.3023   14.1149  -16.4606 C   0  0  0  0  0  0  0  0  0  0  0  0
  -27.1811   14.9107  -15.9656 N   0  0  0  0  0  0  0  0  0  0  0  0
  -27.5349   16.3251  -16.1849 C   0  0  0  0  0  0  0  0  0  0  0  0
  -25.9085   14.5400  -16.5624 C   0  0  0  0  0  0  0  0  0  0  0  0
  -29.5860   16.8891  -17.4809 N   0  0  0  0  0  0  0  0  0  0  0  0
  -30.3398   18.0220  -17.2977 C   0  0  0  0  0  0  0  0  0  0  0  0
  -30.8615   18.6702  -18.1864 O   0  0  0  0  0  0  0  0  0  0  0  0
  -30.3996   18.2908  -15.9710 N   0  0  0  0  0  0  0  0  0  0  0  0
  -29.4006   16.5252  -18.4058 H   0  0  0  0  0  0  0  0  0  0  0  0
  -30.9119   19.0745  -15.6060 H   0  0  0  0  0  0  0  0  0  0  0  0
  1  2  1  0  0  0  0
  2  3  2  0  0  0  0
  3 13  1  0  0  0  0
  4  3  1  0  0  0  0
  4  5  1  1  0  0  0
  4  8  1  0  0  0  0
  4 10  1  0  0  0  0
  5  6  1  0  0  0  0
  6  7  1  0  0  0  0
  7  8  1  0  0  0  0
  7  9  1  0  0  0  0
 10 11  1  0  0  0  0
 10 14  1  0  0  0  0
 11 12  2  0  0  0  0
 11 13  1  0  0  0  0
 13 15  1  0  0  0  0
M  END
>  <CHROM.0>
-59.32062849,-57.98824819,-62.50378536,-42.54354498,-177.37552832,-62.78020409
-64.64104724,-56.48580437,-168.55462952

>  <CHROM.1>
-28.99740680,16.49390377,-16.31940612,3.04986653,0.81453768,-1.59968837

>  <Name>
P136187106

>  <RI>
0

>  <Rbt.Current_Directory>
/home/fstefaniak/projects/zuza/docking/adenine/4TZX

>  <Rbt.Executable>
rbdock ($Id: //depot/dev/client3/rdock/2013.1/src/exe/rbdock.cxx#4 $)

>  <Rbt.Library>
libRbt.so (2013.1, Build901 2013/11/27)

>  <Rbt.Parameter_File>
/home/fstefaniak/progs/rDock//data/scripts/dock_solv.prm

>  <Rbt.Receptor>
4tzx.prm

>  <SCORE>
-45.5603

>  <SCORE.INTER>
-24.3822

>  <SCORE.INTER.CONST>
1

>  <SCORE.INTER.POLAR>
-1.90672

>  <SCORE.INTER.ROT>
0

>  <SCORE.INTER.SOLV>
13.0535

>  <SCORE.INTER.VDW>
-17.8502

>  <SCORE.INTER.norm>
-2.03185

>  <SCORE.INTRA>
0

>  <SCORE.INTRA.DIHEDRAL>
0

>  <SCORE.INTRA.DIHEDRAL.0>
0

>  <SCORE.INTRA.POLAR>
0

>  <SCORE.INTRA.POLAR.0>
0

>  <SCORE.INTRA.REPUL>
0

>  <SCORE.INTRA.REPUL.0>
0

>  <SCORE.INTRA.SOLV>
0

>  <SCORE.INTRA.SOLV.lig_0>
-20.0208

>  <SCORE.INTRA.VDW>
0

>  <SCORE.INTRA.VDW.0>
0

>  <SCORE.INTRA.norm>
0

>  <SCORE.RESTR>
0

>  <SCORE.RESTR.CAVITY>
0

>  <SCORE.RESTR.norm>
0

>  <SCORE.SYSTEM>
-21.1782

>  <SCORE.SYSTEM.CONST>
0

>  <SCORE.SYSTEM.DIHEDRAL>
4.33342

>  <SCORE.SYSTEM.POLAR>
-3.06892

>  <SCORE.SYSTEM.SOLV>
0.0175672

>  <SCORE.SYSTEM.VDW>
-5.33939

>  <SCORE.SYSTEM.norm>
-1.76485

>  <SCORE.heavy>
12

>  <SCORE.norm>
-3.79669

$$$$
P136187106
 OpenBabel12072022113D
libRbt.so/2013.1/901 2013/11/27
 15 16  0  0  0  0  0  0  0  0999 V2000
  -30.1097   18.1833  -13.5948 H   0  0  0  0  0  0  0  0  0  0  0  0
  -29.5900   17.3938  -13.9856 N   0  0  0  0  0  0  0  0  0  0  0  0
  -29.6921   17.3795  -15.2661 C   0  0  0  0  0  0  0  0  0  0  0  0
  -29.0705   16.3692  -16.2239 C   0  0  2  0  0  0  0  0  0  0  0  0
  -29.5096   14.9322  -15.9909 C   0  0  0  0  0  0  0  0  0  0  0  0
  -28.3043   14.1331  -16.4613 C   0  0  0  0  0  0  0  0  0  0  0  0
  -27.1809   14.9275  -15.9689 N   0  0  0  0  0  0  0  0  0  0  0  0
  -27.5361   16.3426  -16.1822 C   0  0  0  0  0  0  0  0  0  0  0  0
  -25.9111   14.5590  -16.5728 C   0  0  0  0  0  0  0  0  0  0  0  0
  -29.5932   16.9102  -17.4669 N   0  0  0  0  0  0  0  0  0  0  0  0
  -30.3464   18.0424  -17.2766 C   0  0  0  0  0  0  0  0  0  0  0  0
  -30.8724   18.6933  -18.1608 O   0  0  0  0  0  0  0  0  0  0  0  0
  -30.4001   18.3070  -15.9487 N   0  0  0  0  0  0  0  0  0  0  0  0
  -29.4121   16.5493  -18.3937 H   0  0  0  0  0  0  0  0  0  0  0  0
  -30.9108   19.0894  -15.5789 H   0  0  0  0  0  0  0  0  0  0  0  0
  1  2  1  0  0  0  0
  2  3  2  0  0  0  0
  3 13  1  0  0  0  0
  4  3  1  0  0  0  0
  4  5  1  1  0  0  0
  4  8  1  0  0  0  0
  4 10  1  0  0  0  0
  5  6  1  0  0  0  0
  6  7  1  0  0  0  0
  7  8  1  0  0  0  0
  7  9  1  0  0  0  0
 10 11  1  0  0  0  0
 10 14  1  0  0  0  0
 11 12  2  0  0  0  0
 11 13  1  0  0  0  0
 13 15  1  0  0  0  0
M  END
>  <CHROM.0>
-60.21686839,-60.84087468,-65.85464346,-43.35404685,-60.41716678,-64.24001351
-68.70544408,-61.73922274,-168.40077704

>  <CHROM.1>
-28.99921308,16.51150291,-16.30934998,3.05661524,0.81419853,-1.60144720

>  <Name>
P136187106

>  <RI>
0

>  <Rbt.Current_Directory>
/home/fstefaniak/projects/zuza/docking/adenine/4TZX

>  <Rbt.Executable>
rbdock ($Id: //depot/dev/client3/rdock/2013.1/src/exe/rbdock.cxx#4 $)

>  <Rbt.Library>
libRbt.so (2013.1, Build901 2013/11/27)

>  <Rbt.Parameter_File>
/home/fstefaniak/progs/rDock//data/scripts/dock_solv.prm

>  <Rbt.Receptor>
4tzx.prm

>  <SCORE>
-45.4825

>  <SCORE.INTER>
-24.291

>  <SCORE.INTER.CONST>
1

>  <SCORE.INTER.POLAR>
-1.90383

>  <SCORE.INTER.ROT>
0

>  <SCORE.INTER.SOLV>
13.0696

>  <SCORE.INTER.VDW>
-17.8044

>  <SCORE.INTER.norm>
-2.02425

>  <SCORE.INTRA>
0

>  <SCORE.INTRA.DIHEDRAL>
0

>  <SCORE.INTRA.DIHEDRAL.0>
0

>  <SCORE.INTRA.POLAR>
0

>  <SCORE.INTRA.POLAR.0>
0

>  <SCORE.INTRA.REPUL>
0

>  <SCORE.INTRA.REPUL.0>
0

>  <SCORE.INTRA.SOLV>
0

>  <SCORE.INTRA.SOLV.lig_0>
-20.0208

>  <SCORE.INTRA.VDW>
0

>  <SCORE.INTRA.VDW.0>
0

>  <SCORE.INTRA.norm>
0

>  <SCORE.RESTR>
0

>  <SCORE.RESTR.CAVITY>
0

>  <SCORE.RESTR.norm>
0

>  <SCORE.SYSTEM>
-21.1915

>  <SCORE.SYSTEM.CONST>
0

>  <SCORE.SYSTEM.DIHEDRAL>
4.5574

>  <SCORE.SYSTEM.POLAR>
-3.04435

>  <SCORE.SYSTEM.SOLV>
0.168512

>  <SCORE.SYSTEM.VDW>
-5.5551

>  <SCORE.SYSTEM.norm>
-1.76595

>  <SCORE.heavy>
12

>  <SCORE.norm>
-3.79021

$$$$
P136187106
 OpenBabel12072022113D
libRbt.so/2013.1/901 2013/11/27
 15 16  0  0  0  0  0  0  0  0999 V2000
  -30.1169   18.1880  -13.5832 H   0  0  0  0  0  0  0  0  0  0  0  0
  -29.5983   17.3979  -13.9747 N   0  0  0  0  0  0  0  0  0  0  0  0
  -29.7008   17.3845  -15.2551 C   0  0  0  0  0  0  0  0  0  0  0  0
  -29.0807   16.3739  -16.2136 C   0  0  2  0  0  0  0  0  0  0  0  0
  -29.5216   14.9374  -15.9813 C   0  0  0  0  0  0  0  0  0  0  0  0
  -28.3175   14.1370  -16.4523 C   0  0  0  0  0  0  0  0  0  0  0  0
  -27.1930   14.9297  -15.9599 N   0  0  0  0  0  0  0  0  0  0  0  0
  -27.5463   16.3453  -16.1723 C   0  0  0  0  0  0  0  0  0  0  0  0
  -25.9237   14.5599  -16.5644 C   0  0  0  0  0  0  0  0  0  0  0  0
  -29.6031   16.9162  -17.4561 N   0  0  0  0  0  0  0  0  0  0  0  0
  -30.3548   18.0493  -17.2650 C   0  0  0  0  0  0  0  0  0  0  0  0
  -30.8802   18.7013  -18.1488 O   0  0  0  0  0  0  0  0  0  0  0  0
  -30.4078   18.3132  -15.9370 N   0  0  0  0  0  0  0  0  0  0  0  0
  -29.4228   16.5556  -18.3832 H   0  0  0  0  0  0  0  0  0  0  0  0
  -30.9174   19.0961  -15.5666 H   0  0  0  0  0  0  0  0  0  0  0  0
  1  2  1  0  0  0  0
  2  3  2  0  0  0  0
  3 13  1  0  0  0  0
  4  3  1  0  0  0  0
  4  5  1  1  0  0  0
  4  8  1  0  0  0  0
  4 10  1  0  0  0  0
  5  6  1  0  0  0  0
  6  7  1  0  0  0  0
  7  8  1  0  0  0  0
  7  9  1  0  0  0  0
 10 11  1  0  0  0  0
 10 14  1  0  0  0  0
 11 12  2  0  0  0  0
 11 13  1  0  0  0  0
 13 15  1  0  0  0  0
M  END
>  <CHROM.0>
-62.24502298,-59.17538701,-66.82409054,-42.92873188,-57.01256644,-61.36400667
-67.53158154,-176.07410553,-169.19471832

>  <CHROM.1>
-29.00929536,16.51615869,-16.29899170,3.05709195,0.81546818,-1.60126831

>  <Name>
P136187106

>  <RI>
0

>  <Rbt.Current_Directory>
/home/fstefaniak/projects/zuza/docking/adenine/4TZX

>  <Rbt.Executable>
rbdock ($Id: //depot/dev/client3/rdock/2013.1/src/exe/rbdock.cxx#4 $)

>  <Rbt.Library>
libRbt.so (2013.1, Build901 2013/11/27)

>  <Rbt.Parameter_File>
/home/fstefaniak/progs/rDock//data/scripts/dock_solv.prm

>  <Rbt.Receptor>
4tzx.prm

>  <SCORE>
-45.4572

>  <SCORE.INTER>
-24.3366

>  <SCORE.INTER.CONST>
1

>  <SCORE.INTER.POLAR>
-1.9168

>  <SCORE.INTER.ROT>
0

>  <SCORE.INTER.SOLV>
13.0611

>  <SCORE.INTER.VDW>
-17.7887

>  <SCORE.INTER.norm>
-2.02805

>  <SCORE.INTRA>
0

>  <SCORE.INTRA.DIHEDRAL>
0

>  <SCORE.INTRA.DIHEDRAL.0>
0

>  <SCORE.INTRA.POLAR>
0

>  <SCORE.INTRA.POLAR.0>
0

>  <SCORE.INTRA.REPUL>
0

>  <SCORE.INTRA.REPUL.0>
0

>  <SCORE.INTRA.SOLV>
0

>  <SCORE.INTRA.SOLV.lig_0>
-20.0208

>  <SCORE.INTRA.VDW>
0

>  <SCORE.INTRA.VDW.0>
0

>  <SCORE.INTRA.norm>
0

>  <SCORE.RESTR>
0

>  <SCORE.RESTR.CAVITY>
0

>  <SCORE.RESTR.norm>
0

>  <SCORE.SYSTEM>
-21.1206

>  <SCORE.SYSTEM.CONST>
0

>  <SCORE.SYSTEM.DIHEDRAL>
4.55755

>  <SCORE.SYSTEM.POLAR>
-3.03873

>  <SCORE.SYSTEM.SOLV>
0.0494474

>  <SCORE.SYSTEM.VDW>
-5.48699

>  <SCORE.SYSTEM.norm>
-1.76005

>  <SCORE.heavy>
12

>  <SCORE.norm>
-3.7881

$$$$
P136187313
 OpenBabel12072022113D
libRbt.so/2013.1/901 2013/11/27
 15 16  0  0  0  0  0  0  0  0999 V2000
  -31.7597   17.5278  -14.1690 H   0  0  0  0  0  0  0  0  0  0  0  0
  -30.9229   16.9739  -14.3735 N   0  0  0  0  0  0  0  0  0  0  0  0
  -30.5681   17.1440  -15.5968 C   0  0  0  0  0  0  0  0  0  0  0  0
  -29.3707   16.4965  -16.2828 C   0  0  1  0  0  0  0  0  0  0  0  0
  -28.0467   16.9455  -15.6649 C   0  0  0  0  0  0  0  0  0  0  0  0
  -26.8732   16.1729  -16.2648 C   0  0  0  0  0  0  0  0  0  0  0  0
  -27.1413   14.6732  -16.2435 C   0  0  0  0  0  0  0  0  0  0  0  0
  -28.3570   14.3687  -16.9285 O   0  0  0  0  0  0  0  0  0  0  0  0
  -29.4963   14.9714  -16.2948 C   0  0  0  0  0  0  0  0  0  0  0  0
  -29.5586   17.0739  -17.6035 N   0  0  0  0  0  0  0  0  0  0  0  0
  -30.6610   17.8890  -17.6791 C   0  0  0  0  0  0  0  0  0  0  0  0
  -31.0586   18.4510  -18.6830 O   0  0  0  0  0  0  0  0  0  0  0  0
  -31.2375   17.9458  -16.4528 N   0  0  0  0  0  0  0  0  0  0  0  0
  -29.0259   16.8211  -18.4259 H   0  0  0  0  0  0  0  0  0  0  0  0
  -32.0708   18.4806  -16.2803 H   0  0  0  0  0  0  0  0  0  0  0  0
  1  2  1  0  0  0  0
  2  3  2  0  0  0  0
  3 13  1  0  0  0  0
  4  3  1  0  0  0  0
  4  5  1  1  0  0  0
  4  9  1  0  0  0  0
  4 10  1  0  0  0  0
  5  6  1  0  0  0  0
  6  7  1  0  0  0  0
  7  8  1  0  0  0  0
  8  9  1  0  0  0  0
 10 11  1  0  0  0  0
 10 14  1  0  0  0  0
 11 12  2  0  0  0  0
 11 13  1  0  0  0  0
 13 15  1  0  0  0  0
M  END
>  <CHROM.0>
-59.26104399,-60.13429315,-67.26329497,-43.52120097,-58.10830940,-61.44094097
-66.80519596,-60.10856585,-169.15891193

>  <CHROM.1>
-29.44669532,16.58492138,-16.53180159,2.77502894,0.63396618,-1.27754085

>  <Name>
P136187313

>  <RI>
0

>  <Rbt.Current_Directory>
/home/fstefaniak/projects/zuza/docking/adenine/4TZX

>  <Rbt.Executable>
rbdock ($Id: //depot/dev/client3/rdock/2013.1/src/exe/rbdock.cxx#4 $)

>  <Rbt.Library>
libRbt.so (2013.1, Build901 2013/11/27)

>  <Rbt.Parameter_File>
/home/fstefaniak/progs/rDock//data/scripts/dock_solv.prm

>  <Rbt.Receptor>
4tzx.prm

>  <SCORE>
-42.2306

>  <SCORE.INTER>
-21.048

>  <SCORE.INTER.CONST>
1

>  <SCORE.INTER.POLAR>
-2.09684

>  <SCORE.INTER.ROT>
0

>  <SCORE.INTER.SOLV>
12.4603

>  <SCORE.INTER.VDW>
-14.796

>  <SCORE.INTER.norm>
-1.754

>  <SCORE.INTRA>
0

>  <SCORE.INTRA.DIHEDRAL>
0

>  <SCORE.INTRA.DIHEDRAL.0>
0

>  <SCORE.INTRA.POLAR>
0

>  <SCORE.INTRA.POLAR.0>
0

>  <SCORE.INTRA.REPUL>
0

>  <SCORE.INTRA.REPUL.0>
0

>  <SCORE.INTRA.SOLV>
0

>  <SCORE.INTRA.SOLV.lig_0>
-17.9212

>  <SCORE.INTRA.VDW>
0

>  <SCORE.INTRA.VDW.0>
0

>  <SCORE.INTRA.norm>
0

>  <SCORE.RESTR>
0

>  <SCORE.RESTR.CAVITY>
0

>  <SCORE.RESTR.norm>
0

>  <SCORE.SYSTEM>
-21.1826

>  <SCORE.SYSTEM.CONST>
0

>  <SCORE.SYSTEM.DIHEDRAL>
4.34194

>  <SCORE.SYSTEM.POLAR>
-3.04087

>  <SCORE.SYSTEM.SOLV>
0.185721

>  <SCORE.SYSTEM.VDW>
-5.49473

>  <SCORE.SYSTEM.norm>
-1.76522

>  <SCORE.heavy>
12

>  <SCORE.norm>
-3.51922

$$$$
P136187313
 OpenBabel12072022113D
libRbt.so/2013.1/901 2013/11/27
 15 16  0  0  0  0  0  0  0  0999 V2000
  -31.7712   17.5197  -14.1910 H   0  0  0  0  0  0  0  0  0  0  0  0
  -30.9313   16.9695  -14.3925 N   0  0  0  0  0  0  0  0  0  0  0  0
  -30.5715   17.1428  -15.6139 C   0  0  0  0  0  0  0  0  0  0  0  0
  -29.3684   16.5011  -16.2952 C   0  0  1  0  0  0  0  0  0  0  0  0
  -28.0490   16.9545  -15.6705 C   0  0  0  0  0  0  0  0  0  0  0  0
  -26.8697   16.1875  -16.2661 C   0  0  0  0  0  0  0  0  0  0  0  0
  -27.1319   14.6867  -16.2482 C   0  0  0  0  0  0  0  0  0  0  0  0
  -28.3432   14.3783  -16.9393 O   0  0  0  0  0  0  0  0  0  0  0  0
  -29.4878   14.9755  -16.3101 C   0  0  0  0  0  0  0  0  0  0  0  0
  -29.5525   17.0797  -17.6160 N   0  0  0  0  0  0  0  0  0  0  0  0
  -30.6577   17.8905  -17.6955 C   0  0  0  0  0  0  0  0  0  0  0  0
  -31.0529   18.4523  -18.7005 O   0  0  0  0  0  0  0  0  0  0  0  0
  -31.2402   17.9431  -16.4718 N   0  0  0  0  0  0  0  0  0  0  0  0
  -29.0149   16.8302  -18.4363 H   0  0  0  0  0  0  0  0  0  0  0  0
  -32.0764   18.4744  -16.3024 H   0  0  0  0  0  0  0  0  0  0  0  0
  1  2  1  0  0  0  0
  2  3  2  0  0  0  0
  3 13  1  0  0  0  0
  4  3  1  0  0  0  0
  4  5  1  1  0  0  0
  4  9  1  0  0  0  0
  4 10  1  0  0  0  0
  5  6  1  0  0  0  0
  6  7  1  0  0  0  0
  7  8  1  0  0  0  0
  8  9  1  0  0  0  0
 10 11  1  0  0  0  0
 10 14  1  0  0  0  0
 11 12  2  0  0  0  0
 11 13  1  0  0  0  0
 13 15  1  0  0  0  0
M  END
>  <CHROM.0>
-59.24361811,-58.42419430,-66.89870273,-43.57018120,-56.75221512,-59.80196965
-67.88018952,-58.78652207,-168.82272235

>  <CHROM.1>
-29.44355781,16.58959737,-16.54445014,2.77097111,0.62877969,-1.27368661

>  <Name>
P136187313

>  <RI>
0

>  <Rbt.Current_Directory>
/home/fstefaniak/projects/zuza/docking/adenine/4TZX

>  <Rbt.Executable>
rbdock ($Id: //depot/dev/client3/rdock/2013.1/src/exe/rbdock.cxx#4 $)

>  <Rbt.Library>
libRbt.so (2013.1, Build901 2013/11/27)

>  <Rbt.Parameter_File>
/home/fstefaniak/progs/rDock//data/scripts/dock_solv.prm

>  <Rbt.Receptor>
4tzx.prm

>  <SCORE>
-42.2135

>  <SCORE.INTER>
-21.0968

>  <SCORE.INTER.CONST>
1

>  <SCORE.INTER.POLAR>
-2.09684

>  <SCORE.INTER.ROT>
0

>  <SCORE.INTER.SOLV>
12.4767

>  <SCORE.INTER.VDW>
-14.834

>  <SCORE.INTER.norm>
-1.75807

>  <SCORE.INTRA>
0

>  <SCORE.INTRA.DIHEDRAL>
0

>  <SCORE.INTRA.DIHEDRAL.0>
0

>  <SCORE.INTRA.POLAR>
0

>  <SCORE.INTRA.POLAR.0>
0

>  <SCORE.INTRA.REPUL>
0

>  <SCORE.INTRA.REPUL.0>
0

>  <SCORE.INTRA.SOLV>
0

>  <SCORE.INTRA.SOLV.lig_0>
-17.9212

>  <SCORE.INTRA.VDW>
0

>  <SCORE.INTRA.VDW.0>
0

>  <SCORE.INTRA.norm>
0

>  <SCORE.RESTR>
0

>  <SCORE.RESTR.CAVITY>
0

>  <SCORE.RESTR.norm>
0

>  <SCORE.SYSTEM>
-21.1166

>  <SCORE.SYSTEM.CONST>
0

>  <SCORE.SYSTEM.DIHEDRAL>
4.45482

>  <SCORE.SYSTEM.POLAR>
-3.04878

>  <SCORE.SYSTEM.SOLV>
0.190721

>  <SCORE.SYSTEM.VDW>
-5.46368

>  <SCORE.SYSTEM.norm>
-1.75972

>  <SCORE.heavy>
12

>  <SCORE.norm>
-3.51779

$$$$
P136187313
 OpenBabel12072022113D
libRbt.so/2013.1/901 2013/11/27
 15 16  0  0  0  0  0  0  0  0999 V2000
  -31.7033   17.4730  -14.1054 H   0  0  0  0  0  0  0  0  0  0  0  0
  -30.8664   16.9277  -14.3316 N   0  0  0  0  0  0  0  0  0  0  0  0
  -30.5452   17.1014  -15.5637 C   0  0  0  0  0  0  0  0  0  0  0  0
  -29.3594   16.4663  -16.2806 C   0  0  1  0  0  0  0  0  0  0  0  0
  -28.0245   16.9288  -15.6971 C   0  0  0  0  0  0  0  0  0  0  0  0
  -26.8591   16.1683  -16.3274 C   0  0  0  0  0  0  0  0  0  0  0  0
  -27.1112   14.6659  -16.2994 C   0  0  0  0  0  0  0  0  0  0  0  0
  -28.3410   14.3489  -16.9527 O   0  0  0  0  0  0  0  0  0  0  0  0
  -29.4696   14.9399  -16.2897 C   0  0  0  0  0  0  0  0  0  0  0  0
  -29.5874   17.0416  -17.5959 N   0  0  0  0  0  0  0  0  0  0  0  0
  -30.6996   17.8454  -17.6427 C   0  0  0  0  0  0  0  0  0  0  0  0
  -31.1289   18.4031  -18.6359 O   0  0  0  0  0  0  0  0  0  0  0  0
  -31.2448   17.8962  -16.4018 N   0  0  0  0  0  0  0  0  0  0  0  0
  -29.0735   16.7942  -18.4319 H   0  0  0  0  0  0  0  0  0  0  0  0
  -32.0788   18.4225  -16.2077 H   0  0  0  0  0  0  0  0  0  0  0  0
  1  2  1  0  0  0  0
  2  3  2  0  0  0  0
  3 13  1  0  0  0  0
  4  3  1  0  0  0  0
  4  5  1  1  0  0  0
  4  9  1  0  0  0  0
  4 10  1  0  0  0  0
  5  6  1  0  0  0  0
  6  7  1  0  0  0  0
  7  8  1  0  0  0  0
  8  9  1  0  0  0  0
 10 11  1  0  0  0  0
 10 14  1  0  0  0  0
 11 12  2  0  0  0  0
 11 13  1  0  0  0  0
 13 15  1  0  0  0  0
M  END
>  <CHROM.0>
-59.65636263,-59.75760914,-67.15673810,-43.47443560,-57.86586137,-62.46996440
-63.89634134,-60.11119435,-169.24549155

>  <CHROM.1>
-29.44272334,16.55385608,-16.52750652,2.80942741,0.63133678,-1.29779425

>  <Name>
P136187313

>  <RI>
0

>  <Rbt.Current_Directory>
/home/fstefaniak/projects/zuza/docking/adenine/4TZX

>  <Rbt.Executable>
rbdock ($Id: //depot/dev/client3/rdock/2013.1/src/exe/rbdock.cxx#4 $)

>  <Rbt.Library>
libRbt.so (2013.1, Build901 2013/11/27)

>  <Rbt.Parameter_File>
/home/fstefaniak/progs/rDock//data/scripts/dock_solv.prm

>  <Rbt.Receptor>
4tzx.prm

>  <SCORE>
-42.1782

>  <SCORE.INTER>
-21.0306

>  <SCORE.INTER.CONST>
1

>  <SCORE.INTER.POLAR>
-2.07715

>  <SCORE.INTER.ROT>
0

>  <SCORE.INTER.SOLV>
12.3698

>  <SCORE.INTER.VDW>
-14.8198

>  <SCORE.INTER.norm>
-1.75255

>  <SCORE.INTRA>
0

>  <SCORE.INTRA.DIHEDRAL>
0

>  <SCORE.INTRA.DIHEDRAL.0>
0

>  <SCORE.INTRA.POLAR>
0

>  <SCORE.INTRA.POLAR.0>
0

>  <SCORE.INTRA.REPUL>
0

>  <SCORE.INTRA.REPUL.0>
0

>  <SCORE.INTRA.SOLV>
0

>  <SCORE.INTRA.SOLV.lig_0>
-17.9212

>  <SCORE.INTRA.VDW>
0

>  <SCORE.INTRA.VDW.0>
0

>  <SCORE.INTRA.norm>
0

>  <SCORE.RESTR>
0

>  <SCORE.RESTR.CAVITY>
0

>  <SCORE.RESTR.norm>
0

>  <SCORE.SYSTEM>
-21.1476

>  <SCORE.SYSTEM.CONST>
0

>  <SCORE.SYSTEM.DIHEDRAL>
4.21459

>  <SCORE.SYSTEM.POLAR>
-3.03921

>  <SCORE.SYSTEM.SOLV>
0.191446

>  <SCORE.SYSTEM.VDW>
-5.43637

>  <SCORE.SYSTEM.norm>
-1.7623

>  <SCORE.heavy>
12

>  <SCORE.norm>
-3.51485

$$$$
P136190992
 OpenBabel12072022113D
libRbt.so/2013.1/901 2013/11/27
 14 14  0  0  0  0  0  0  0  0999 V2000
  -32.5069   18.2230  -17.0621 H   0  0  0  0  0  0  0  0  0  0  0  0
  -32.1197   18.4566  -16.1416 N   0  0  0  0  0  0  0  0  0  0  0  0
  -30.9399   17.9650  -16.0058 C   0  0  0  0  0  0  0  0  0  0  0  0
  -30.1467   17.1403  -17.0033 C   0  0  2  0  0  0  0  0  0  0  0  0
  -28.9821   16.8438  -16.1837 N   0  0  0  0  0  0  0  0  0  0  0  0
  -29.0786   17.4258  -14.9220 C   0  0  0  0  0  0  0  0  0  0  0  0
  -28.2994   17.2994  -13.9929 O   0  0  0  0  0  0  0  0  0  0  0  0
  -30.2369   18.1341  -14.8706 N   0  0  0  0  0  0  0  0  0  0  0  0
  -27.9977   15.8327  -16.5671 C   0  0  0  0  0  0  0  0  0  0  0  0
  -26.5819   16.2290  -16.1527 C   0  0  0  0  0  0  0  0  0  0  0  0
  -28.3649   14.4533  -16.0214 C   0  0  0  0  0  0  0  0  0  0  0  0
  -29.8362   17.9038  -18.2913 C   0  0  0  0  0  0  0  0  0  0  0  0
  -31.0584   18.4472  -19.0241 C   0  0  0  0  0  0  0  0  0  0  0  0
  -30.5709   18.6096  -14.0505 H   0  0  0  0  0  0  0  0  0  0  0  0
  1  2  1  0  0  0  0
  2  3  2  0  0  0  0
  3  4  1  0  0  0  0
  3  8  1  0  0  0  0
  4  5  1  0  0  0  0
  4 12  1  6  0  0  0
  5  6  1  0  0  0  0
  5  9  1  0  0  0  0
  6  7  2  0  0  0  0
  6  8  1  0  0  0  0
  8 14  1  0  0  0  0
  9 10  1  0  0  0  0
  9 11  1  0  0  0  0
 12 13  1  0  0  0  0
M  END
>  <CHROM.0>
-61.06650448,-57.95138473,-64.77691756,-43.47426422,-176.39416240,-60.42964857
-68.55658289,-57.61264907,-168.98263201

>  <CHROM.1>
-56.66631144,144.99336190,-29.45842265,17.17512227,-16.25717140,2.82326807
0.63782635,-1.72153963

>  <Name>
P136190992

>  <RI>
0

>  <Rbt.Current_Directory>
/home/fstefaniak/projects/zuza/docking/adenine/4TZX

>  <Rbt.Executable>
rbdock ($Id: //depot/dev/client3/rdock/2013.1/src/exe/rbdock.cxx#4 $)

>  <Rbt.Library>
libRbt.so (2013.1, Build901 2013/11/27)

>  <Rbt.Parameter_File>
/home/fstefaniak/progs/rDock//data/scripts/dock_solv.prm

>  <Rbt.Receptor>
4tzx.prm

>  <SCORE>
-39.3698

>  <SCORE.INTER>
-20.0312

>  <SCORE.INTER.CONST>
1

>  <SCORE.INTER.POLAR>
-1.99785

>  <SCORE.INTER.ROT>
2

>  <SCORE.INTER.SOLV>
11.4274

>  <SCORE.INTER.VDW>
-15.4371

>  <SCORE.INTER.norm>
-1.66927

>  <SCORE.INTRA>
1.93832

>  <SCORE.INTRA.DIHEDRAL>
0.575851

>  <SCORE.INTRA.DIHEDRAL.0>
2.6544

>  <SCORE.INTRA.POLAR>
0

>  <SCORE.INTRA.POLAR.0>
0

>  <SCORE.INTRA.REPUL>
0

>  <SCORE.INTRA.REPUL.0>
0

>  <SCORE.INTRA.SOLV>
-0.211574

>  <SCORE.INTRA.SOLV.lig_0>
-12.2381

>  <SCORE.INTRA.VDW>
1.75618

>  <SCORE.INTRA.VDW.0>
-0.401924

>  <SCORE.INTRA.norm>
0.161526

>  <SCORE.RESTR>
0

>  <SCORE.RESTR.CAVITY>
0

>  <SCORE.RESTR.norm>
0

>  <SCORE.SYSTEM>
-21.277

>  <SCORE.SYSTEM.CONST>
0

>  <SCORE.SYSTEM.DIHEDRAL>
4.43252

>  <SCORE.SYSTEM.POLAR>
-3.04438

>  <SCORE.SYSTEM.SOLV>
0.00152821

>  <SCORE.SYSTEM.VDW>
-5.5147

>  <SCORE.SYSTEM.norm>
-1.77308

>  <SCORE.heavy>
12

>  <SCORE.norm>
-3.28082

$$$$
P136190992
 OpenBabel12072022113D
libRbt.so/2013.1/901 2013/11/27
 14 14  0  0  0  0  0  0  0  0999 V2000
  -32.4764   18.1851  -17.1375 H   0  0  0  0  0  0  0  0  0  0  0  0
  -32.0938   18.4292  -16.2178 N   0  0  0  0  0  0  0  0  0  0  0  0
  -30.9139   17.9409  -16.0713 C   0  0  0  0  0  0  0  0  0  0  0  0
  -30.1149   17.1067  -17.0563 C   0  0  2  0  0  0  0  0  0  0  0  0
  -28.9536   16.8209  -16.2282 N   0  0  0  0  0  0  0  0  0  0  0  0
  -29.0568   17.4163  -14.9732 C   0  0  0  0  0  0  0  0  0  0  0  0
  -28.2817   17.3011  -14.0393 O   0  0  0  0  0  0  0  0  0  0  0  0
  -30.2164   18.1233  -14.9348 N   0  0  0  0  0  0  0  0  0  0  0  0
  -27.9659   15.8073  -16.5961 C   0  0  0  0  0  0  0  0  0  0  0  0
  -26.5564   16.1981  -16.1562 C   0  0  0  0  0  0  0  0  0  0  0  0
  -28.3472   14.4280  -16.0596 C   0  0  0  0  0  0  0  0  0  0  0  0
  -29.7996   17.8569  -18.3510 C   0  0  0  0  0  0  0  0  0  0  0  0
  -31.0175   18.4113  -19.0827 C   0  0  0  0  0  0  0  0  0  0  0  0
  -30.5549   18.6071  -14.1214 H   0  0  0  0  0  0  0  0  0  0  0  0
  1  2  1  0  0  0  0
  2  3  2  0  0  0  0
  3  4  1  0  0  0  0
  3  8  1  0  0  0  0
  4  5  1  0  0  0  0
  4 12  1  6  0  0  0
  5  6  1  0  0  0  0
  5  9  1  0  0  0  0
  6  7  2  0  0  0  0
  6  8  1  0  0  0  0
  8 14  1  0  0  0  0
  9 10  1  0  0  0  0
  9 11  1  0  0  0  0
 12 13  1  0  0  0  0
M  END
>  <CHROM.0>
-62.21720821,-58.53574667,-64.37755616,-42.82171966,-177.45841738,-61.92892969
-65.47210485,-61.83474262,-168.78403416

>  <CHROM.1>
-55.65658345,146.06947001,-29.43148347,17.15097845,-16.30616761,2.82101859
0.64015350,-1.73219138

>  <Name>
P136190992

>  <RI>
0

>  <Rbt.Current_Directory>
/home/fstefaniak/projects/zuza/docking/adenine/4TZX

>  <Rbt.Executable>
rbdock ($Id: //depot/dev/client3/rdock/2013.1/src/exe/rbdock.cxx#4 $)

>  <Rbt.Library>
libRbt.so (2013.1, Build901 2013/11/27)

>  <Rbt.Parameter_File>
/home/fstefaniak/progs/rDock//data/scripts/dock_solv.prm

>  <Rbt.Receptor>
4tzx.prm

>  <SCORE>
-39.3107

>  <SCORE.INTER>
-20.1201

>  <SCORE.INTER.CONST>
1

>  <SCORE.INTER.POLAR>
-2.0292

>  <SCORE.INTER.ROT>
2

>  <SCORE.INTER.SOLV>
11.3484

>  <SCORE.INTER.VDW>
-15.3655

>  <SCORE.INTER.norm>
-1.67668

>  <SCORE.INTRA>
2.11166

>  <SCORE.INTRA.DIHEDRAL>
0.624241

>  <SCORE.INTRA.DIHEDRAL.0>
2.6544

>  <SCORE.INTRA.POLAR>
0

>  <SCORE.INTRA.POLAR.0>
0

>  <SCORE.INTRA.REPUL>
0

>  <SCORE.INTRA.REPUL.0>
0

>  <SCORE.INTRA.SOLV>
-0.207203

>  <SCORE.INTRA.SOLV.lig_0>
-12.2381

>  <SCORE.INTRA.VDW>
1.90314

>  <SCORE.INTRA.VDW.0>
-0.401924

>  <SCORE.INTRA.norm>
0.175971

>  <SCORE.RESTR>
0

>  <SCORE.RESTR.CAVITY>
0

>  <SCORE.RESTR.norm>
0

>  <SCORE.SYSTEM>
-21.3022

>  <SCORE.SYSTEM.CONST>
0

>  <SCORE.SYSTEM.DIHEDRAL>
4.31797

>  <SCORE.SYSTEM.POLAR>
-3.04423

>  <SCORE.SYSTEM.SOLV>
0.000146234

>  <SCORE.SYSTEM.VDW>
-5.49342

>  <SCORE.SYSTEM.norm>
-1.77518

>  <SCORE.heavy>
12

>  <SCORE.norm>
-3.27589

$$$$
P136190992
 OpenBabel12072022113D
libRbt.so/2013.1/901 2013/11/27
 14 14  0  0  0  0  0  0  0  0999 V2000
  -32.4903   18.1469  -17.1222 H   0  0  0  0  0  0  0  0  0  0  0  0
  -32.1121   18.3937  -16.2015 N   0  0  0  0  0  0  0  0  0  0  0  0
  -30.9279   17.9166  -16.0528 C   0  0  0  0  0  0  0  0  0  0  0  0
  -30.1188   17.0911  -17.0368 C   0  0  2  0  0  0  0  0  0  0  0  0
  -28.9567   16.8155  -16.2063 N   0  0  0  0  0  0  0  0  0  0  0  0
  -29.0684   17.4086  -14.9511 C   0  0  0  0  0  0  0  0  0  0  0  0
  -28.2943   17.2999  -14.0155 O   0  0  0  0  0  0  0  0  0  0  0  0
  -30.2347   18.1045  -14.9145 N   0  0  0  0  0  0  0  0  0  0  0  0
  -27.9585   15.8117  -16.5731 C   0  0  0  0  0  0  0  0  0  0  0  0
  -26.5504   16.2269  -16.1514 C   0  0  0  0  0  0  0  0  0  0  0  0
  -28.3152   14.4333  -16.0179 C   0  0  0  0  0  0  0  0  0  0  0  0
  -29.8077   17.8455  -18.3300 C   0  0  0  0  0  0  0  0  0  0  0  0
  -31.0233   18.4431  -19.0310 C   0  0  0  0  0  0  0  0  0  0  0  0
  -30.5796   18.5842  -14.1014 H   0  0  0  0  0  0  0  0  0  0  0  0
  1  2  1  0  0  0  0
  2  3  2  0  0  0  0
  3  4  1  0  0  0  0
  3  8  1  0  0  0  0
  4  5  1  0  0  0  0
  4 12  1  6  0  0  0
  5  6  1  0  0  0  0
  5  9  1  0  0  0  0
  6  7  2  0  0  0  0
  6  8  1  0  0  0  0
  8 14  1  0  0  0  0
  9 10  1  0  0  0  0
  9 11  1  0  0  0  0
 12 13  1  0  0  0  0
M  END
>  <CHROM.0>
-59.14738592,-63.11567011,-64.16067064,-43.62088251,-60.42854188,-56.85091979
-65.45709473,-57.13228537,-169.05344869

>  <CHROM.1>
-53.02607927,145.06311894,-29.43553363,17.14733706,-16.28225732,2.81567717
0.63121470,-1.71695864

>  <Name>
P136190992

>  <RI>
0

>  <Rbt.Current_Directory>
/home/fstefaniak/projects/zuza/docking/adenine/4TZX

>  <Rbt.Executable>
rbdock ($Id: //depot/dev/client3/rdock/2013.1/src/exe/rbdock.cxx#4 $)

>  <Rbt.Library>
libRbt.so (2013.1, Build901 2013/11/27)

>  <Rbt.Parameter_File>
/home/fstefaniak/progs/rDock//data/scripts/dock_solv.prm

>  <Rbt.Receptor>
4tzx.prm

>  <SCORE>
-39.1677

>  <SCORE.INTER>
-20.4286

>  <SCORE.INTER.CONST>
1

>  <SCORE.INTER.POLAR>
-1.99306

>  <SCORE.INTER.ROT>
2

>  <SCORE.INTER.SOLV>
11.3421

>  <SCORE.INTER.VDW>
-15.6896

>  <SCORE.INTER.norm>
-1.70239

>  <SCORE.INTRA>
2.32786

>  <SCORE.INTRA.DIHEDRAL>
0.692027

>  <SCORE.INTRA.DIHEDRAL.0>
2.6544

>  <SCORE.INTRA.POLAR>
0

>  <SCORE.INTRA.POLAR.0>
0

>  <SCORE.INTRA.REPUL>
0

>  <SCORE.INTRA.REPUL.0>
0

>  <SCORE.INTRA.SOLV>
-0.196047

>  <SCORE.INTRA.SOLV.lig_0>
-12.2381

>  <SCORE.INTRA.VDW>
2.07987

>  <SCORE.INTRA.VDW.0>
-0.401924

>  <SCORE.INTRA.norm>
0.193989

>  <SCORE.RESTR>
0

>  <SCORE.RESTR.CAVITY>
0

>  <SCORE.RESTR.norm>
0

>  <SCORE.SYSTEM>
-21.067

>  <SCORE.SYSTEM.CONST>
0

>  <SCORE.SYSTEM.DIHEDRAL>
4.20942

>  <SCORE.SYSTEM.POLAR>
-3.0575

>  <SCORE.SYSTEM.SOLV>
0.201363

>  <SCORE.SYSTEM.VDW>
-5.32324

>  <SCORE.SYSTEM.norm>
-1.75558

>  <SCORE.heavy>
12

>  <SCORE.norm>
-3.26398

$$$$
P136208231
 OpenBabel12072022113D
libRbt.so/2013.1/901 2013/11/27
 15 16  0  0  0  0  0  0  0  0999 V2000
  -31.2431   18.3991  -14.9174 H   0  0  0  0  0  0  0  0  0  0  0  0
  -31.4183   19.0936  -15.6506 N   0  0  0  0  0  0  0  0  0  0  0  0
  -30.8966   18.7305  -16.7672 C   0  0  0  0  0  0  0  0  0  0  0  0
  -30.1053   17.4654  -17.0726 C   0  0  1  0  0  0  0  0  0  0  0  0
  -29.8562   17.7029  -18.4713 N   0  0  0  0  0  0  0  0  0  0  0  0
  -30.4114   18.8802  -18.9221 C   0  0  0  0  0  0  0  0  0  0  0  0
  -30.3508   19.2913  -20.0661 O   0  0  0  0  0  0  0  0  0  0  0  0
  -31.0228   19.4864  -17.8764 N   0  0  0  0  0  0  0  0  0  0  0  0
  -28.8621   17.3067  -16.1892 C   0  0  2  0  0  0  0  0  0  0  0  0
  -28.0139   16.0790  -16.4760 C   0  0  0  0  0  0  0  0  0  0  0  0
  -28.6159   14.9978  -15.5978 C   0  0  0  0  0  0  0  0  0  0  0  0
  -29.3906   15.6523  -14.5821 O   0  0  0  0  0  0  0  0  0  0  0  0
  -29.2379   17.0671  -14.7365 C   0  0  0  0  0  0  0  0  0  0  0  0
  -29.3648   17.0781  -19.1004 H   0  0  0  0  0  0  0  0  0  0  0  0
  -31.5149   20.3613  -17.9318 H   0  0  0  0  0  0  0  0  0  0  0  0
  1  2  1  0  0  0  0
  2  3  2  0  0  0  0
  3  8  1  0  0  0  0
  4  3  1  1  0  0  0
  4  5  1  0  0  0  0
  5  6  1  0  0  0  0
  5 14  1  0  0  0  0
  6  7  2  0  0  0  0
  6  8  1  0  0  0  0
  8 15  1  0  0  0  0
  9 10  1  6  0  0  0
  9 13  1  0  0  0  0
  9  4  1  0  0  0  0
 10 11  1  0  0  0  0
 11 12  1  0  0  0  0
 12 13  1  0  0  0  0
M  END
>  <CHROM.0>
-62.25871258,-49.71805668,-63.81183110,-42.84737797,-178.29455492,-66.88250418
-70.02463019,-57.33913706,-169.33942852

>  <CHROM.1>
-178.45346354,-29.84917764,17.63438544,-16.86537095,1.01183715,-0.86305232
1.86931690

>  <Name>
P136208231

>  <RI>
0

>  <Rbt.Current_Directory>
/home/fstefaniak/projects/zuza/docking/adenine/4TZX

>  <Rbt.Executable>
rbdock ($Id: //depot/dev/client3/rdock/2013.1/src/exe/rbdock.cxx#4 $)

>  <Rbt.Library>
libRbt.so (2013.1, Build901 2013/11/27)

>  <Rbt.Parameter_File>
/home/fstefaniak/progs/rDock//data/scripts/dock_solv.prm

>  <Rbt.Receptor>
4tzx.prm

>  <SCORE>
-47.2666

>  <SCORE.INTER>
-27.0768

>  <SCORE.INTER.CONST>
1

>  <SCORE.INTER.POLAR>
-3.38518

>  <SCORE.INTER.ROT>
1

>  <SCORE.INTER.SOLV>
17.631

>  <SCORE.INTER.VDW>
-16.9109

>  <SCORE.INTER.norm>
-2.2564

>  <SCORE.INTRA>
0.645262

>  <SCORE.INTRA.DIHEDRAL>
-0.0814498

>  <SCORE.INTRA.DIHEDRAL.0>
0.289369

>  <SCORE.INTRA.POLAR>
0

>  <SCORE.INTRA.POLAR.0>
0

>  <SCORE.INTRA.REPUL>
0

>  <SCORE.INTRA.REPUL.0>
0

>  <SCORE.INTRA.SOLV>
-0.985025

>  <SCORE.INTRA.SOLV.lig_0>
-18.365

>  <SCORE.INTRA.VDW>
1.1785

>  <SCORE.INTRA.VDW.0>
-1.13211

>  <SCORE.INTRA.norm>
0.0537718

>  <SCORE.RESTR>
0

>  <SCORE.RESTR.CAVITY>
0

>  <SCORE.RESTR.norm>
0

>  <SCORE.SYSTEM>
-20.8351

>  <SCORE.SYSTEM.CONST>
0

>  <SCORE.SYSTEM.DIHEDRAL>
5.24026

>  <SCORE.SYSTEM.POLAR>
-3.03966

>  <SCORE.SYSTEM.SOLV>
0.00646793

>  <SCORE.SYSTEM.VDW>
-5.50677

>  <SCORE.SYSTEM.norm>
-1.73626

>  <SCORE.heavy>
12

>  <SCORE.norm>
-3.93889

$$$$
P136208231
 OpenBabel12072022113D
libRbt.so/2013.1/901 2013/11/27
 15 16  0  0  0  0  0  0  0  0999 V2000
  -31.2682   18.3820  -14.9407 H   0  0  0  0  0  0  0  0  0  0  0  0
  -31.4366   19.0754  -15.6764 N   0  0  0  0  0  0  0  0  0  0  0  0
  -30.8988   18.7141  -16.7858 C   0  0  0  0  0  0  0  0  0  0  0  0
  -30.0982   17.4522  -17.0803 C   0  0  1  0  0  0  0  0  0  0  0  0
  -29.8316   17.6903  -18.4757 N   0  0  0  0  0  0  0  0  0  0  0  0
  -30.3859   18.8651  -18.9342 C   0  0  0  0  0  0  0  0  0  0  0  0
  -30.3119   19.2761  -20.0775 O   0  0  0  0  0  0  0  0  0  0  0  0
  -31.0135   19.4691  -17.8969 N   0  0  0  0  0  0  0  0  0  0  0  0
  -28.8660   17.2991  -16.1805 C   0  0  2  0  0  0  0  0  0  0  0  0
  -27.9984   16.0853  -16.4684 C   0  0  0  0  0  0  0  0  0  0  0  0
  -28.5995   14.9869  -15.6111 C   0  0  0  0  0  0  0  0  0  0  0  0
  -29.3970   15.6204  -14.5997 O   0  0  0  0  0  0  0  0  0  0  0  0
  -29.2599   17.0386  -14.7362 C   0  0  0  0  0  0  0  0  0  0  0  0
  -29.3294   17.0674  -19.0980 H   0  0  0  0  0  0  0  0  0  0  0  0
  -31.5085   20.3419  -17.9592 H   0  0  0  0  0  0  0  0  0  0  0  0
  1  2  1  0  0  0  0
  2  3  2  0  0  0  0
  3  8  1  0  0  0  0
  4  3  1  1  0  0  0
  4  5  1  0  0  0  0
  5  6  1  0  0  0  0
  5 14  1  0  0  0  0
  6  7  2  0  0  0  0
  6  8  1  0  0  0  0
  8 15  1  0  0  0  0
  9 10  1  6  0  0  0
  9 13  1  0  0  0  0
  9  4  1  0  0  0  0
 10 11  1  0  0  0  0
 11 12  1  0  0  0  0
 12 13  1  0  0  0  0
M  END
>  <CHROM.0>
-61.54467789,-48.69901562,-69.85230998,-43.53610366,-172.48321364,-65.84435178
-66.61170479,-61.40702272,-169.03106083

>  <CHROM.1>
-177.63705080,-29.84199412,17.61910247,-16.87516501,1.02525616,-0.85398661
1.88364944

>  <Name>
P136208231

>  <RI>
0

>  <Rbt.Current_Directory>
/home/fstefaniak/projects/zuza/docking/adenine/4TZX

>  <Rbt.Executable>
rbdock ($Id: //depot/dev/client3/rdock/2013.1/src/exe/rbdock.cxx#4 $)

>  <Rbt.Library>
libRbt.so (2013.1, Build901 2013/11/27)

>  <Rbt.Parameter_File>
/home/fstefaniak/progs/rDock//data/scripts/dock_solv.prm

>  <Rbt.Receptor>
4tzx.prm

>  <SCORE>
-47.2298

>  <SCORE.INTER>
-27.0538

>  <SCORE.INTER.CONST>
1

>  <SCORE.INTER.POLAR>
-3.39912

>  <SCORE.INTER.ROT>
1

>  <SCORE.INTER.SOLV>
17.6133

>  <SCORE.INTER.VDW>
-16.8432

>  <SCORE.INTER.norm>
-2.25448

>  <SCORE.INTRA>
0.57921

>  <SCORE.INTRA.DIHEDRAL>
-0.0724644

>  <SCORE.INTRA.DIHEDRAL.0>
0.289369

>  <SCORE.INTRA.POLAR>
0

>  <SCORE.INTRA.POLAR.0>
0

>  <SCORE.INTRA.REPUL>
0

>  <SCORE.INTRA.REPUL.0>
0

>  <SCORE.INTRA.SOLV>
-0.990363

>  <SCORE.INTRA.SOLV.lig_0>
-18.365

>  <SCORE.INTRA.VDW>
1.11062

>  <SCORE.INTRA.VDW.0>
-1.13211

>  <SCORE.INTRA.norm>
0.0482675

>  <SCORE.RESTR>
0

>  <SCORE.RESTR.CAVITY>
0

>  <SCORE.RESTR.norm>
0

>  <SCORE.SYSTEM>
-20.7552

>  <SCORE.SYSTEM.CONST>
0

>  <SCORE.SYSTEM.DIHEDRAL>
5.53434

>  <SCORE.SYSTEM.POLAR>
-3.02429

>  <SCORE.SYSTEM.SOLV>
0.00570097

>  <SCORE.SYSTEM.VDW>
-5.60251

>  <SCORE.SYSTEM.norm>
-1.7296

>  <SCORE.heavy>
12

>  <SCORE.norm>
-3.93581

$$$$
P136208231
 OpenBabel12072022113D
libRbt.so/2013.1/901 2013/11/27
 15 16  0  0  0  0  0  0  0  0999 V2000
  -31.2683   18.3435  -14.9283 H   0  0  0  0  0  0  0  0  0  0  0  0
  -31.4439   19.0492  -15.6505 N   0  0  0  0  0  0  0  0  0  0  0  0
  -30.9087   18.7115  -16.7686 C   0  0  0  0  0  0  0  0  0  0  0  0
  -30.1020   17.4599  -17.0894 C   0  0  1  0  0  0  0  0  0  0  0  0
  -29.8428   17.7250  -18.4813 N   0  0  0  0  0  0  0  0  0  0  0  0
  -30.4058   18.9046  -18.9159 C   0  0  0  0  0  0  0  0  0  0  0  0
  -30.3391   19.3369  -20.0518 O   0  0  0  0  0  0  0  0  0  0  0  0
  -31.0325   19.4859  -17.8652 N   0  0  0  0  0  0  0  0  0  0  0  0
  -28.8652   17.2977  -16.1976 C   0  0  2  0  0  0  0  0  0  0  0  0
  -28.0111   16.0749  -16.4879 C   0  0  0  0  0  0  0  0  0  0  0  0
  -28.6166   14.9846  -15.6234 C   0  0  0  0  0  0  0  0  0  0  0  0
  -29.4011   15.6285  -14.6084 O   0  0  0  0  0  0  0  0  0  0  0  0
  -29.2515   17.0449  -14.7499 C   0  0  0  0  0  0  0  0  0  0  0  0
  -29.3396   17.1165  -19.1169 H   0  0  0  0  0  0  0  0  0  0  0  0
  -31.5328   20.3568  -17.9094 H   0  0  0  0  0  0  0  0  0  0  0  0
  1  2  1  0  0  0  0
  2  3  2  0  0  0  0
  3  8  1  0  0  0  0
  4  3  1  1  0  0  0
  4  5  1  0  0  0  0
  5  6  1  0  0  0  0
  5 14  1  0  0  0  0
  6  7  2  0  0  0  0
  6  8  1  0  0  0  0
  8 15  1  0  0  0  0
  9 10  1  6  0  0  0
  9 13  1  0  0  0  0
  9  4  1  0  0  0  0
 10 11  1  0  0  0  0
 11 12  1  0  0  0  0
 12 13  1  0  0  0  0
M  END
>  <CHROM.0>
-62.03853267,-51.47397156,-67.13585684,-43.50311336,-172.60726870,-60.94895249
-64.59422267,-176.43359187,-167.68845958

>  <CHROM.1>
-179.13995013,-29.85237078,17.63042337,-16.87223521,1.02355393,-0.85172026
1.89228084

>  <Name>
P136208231

>  <RI>
0

>  <Rbt.Current_Directory>
/home/fstefaniak/projects/zuza/docking/adenine/4TZX

>  <Rbt.Executable>
rbdock ($Id: //depot/dev/client3/rdock/2013.1/src/exe/rbdock.cxx#4 $)

>  <Rbt.Library>
libRbt.so (2013.1, Build901 2013/11/27)

>  <Rbt.Parameter_File>
/home/fstefaniak/progs/rDock//data/scripts/dock_solv.prm

>  <Rbt.Receptor>
4tzx.prm

>  <SCORE>
-47.2013

>  <SCORE.INTER>
-27.0508

>  <SCORE.INTER.CONST>
1

>  <SCORE.INTER.POLAR>
-3.37741

>  <SCORE.INTER.ROT>
1

>  <SCORE.INTER.SOLV>
17.6181

>  <SCORE.INTER.VDW>
-16.9152

>  <SCORE.INTER.norm>
-2.25423

>  <SCORE.INTRA>
0.704921

>  <SCORE.INTRA.DIHEDRAL>
-0.0861153

>  <SCORE.INTRA.DIHEDRAL.0>
0.289369

>  <SCORE.INTRA.POLAR>
0

>  <SCORE.INTRA.POLAR.0>
0

>  <SCORE.INTRA.REPUL>
0

>  <SCORE.INTRA.REPUL.0>
0

>  <SCORE.INTRA.SOLV>
-0.980484

>  <SCORE.INTRA.SOLV.lig_0>
-18.365

>  <SCORE.INTRA.VDW>
1.23822

>  <SCORE.INTRA.VDW.0>
-1.13211

>  <SCORE.INTRA.norm>
0.0587434

>  <SCORE.RESTR>
0

>  <SCORE.RESTR.CAVITY>
0

>  <SCORE.RESTR.norm>
0

>  <SCORE.SYSTEM>
-20.8554

>  <SCORE.SYSTEM.CONST>
0

>  <SCORE.SYSTEM.DIHEDRAL>
5.01029

>  <SCORE.SYSTEM.POLAR>
-3.03104

>  <SCORE.SYSTEM.SOLV>
-0.119665

>  <SCORE.SYSTEM.VDW>
-5.43034

>  <SCORE.SYSTEM.norm>
-1.73795

>  <SCORE.heavy>
12

>  <SCORE.norm>
-3.93344

$$$$
P136208459
 OpenBabel12072022113D
libRbt.so/2013.1/901 2013/11/27
 16 16  0  0  0  0  0  0  0  0999 V2000
  -30.7871   18.6077  -14.2936 H   0  0  0  0  0  0  0  0  0  0  0  0
  -31.3370   18.9860  -15.0879 N   0  0  0  0  0  0  0  0  0  0  0  0
  -30.8391   18.5696  -16.1970 C   0  0  0  0  0  0  0  0  0  0  0  0
  -29.6449   17.6472  -16.4027 C   0  0  2  0  0  0  0  0  0  0  0  0
  -29.5909   17.7047  -17.8500 N   0  0  0  0  0  0  0  0  0  0  0  0
  -30.5948   18.4788  -18.3909 C   0  0  0  0  0  0  0  0  0  0  0  0
  -30.7285   18.7135  -19.5780 O   0  0  0  0  0  0  0  0  0  0  0  0
  -31.3655   18.9418  -17.3801 N   0  0  0  0  0  0  0  0  0  0  0  0
  -29.9327   16.2374  -15.9123 C   0  0  0  0  0  0  0  0  0  0  0  0
  -28.8057   15.2994  -16.2794 C   0  0  0  0  0  0  0  0  0  0  0  0
  -28.9986   14.1609  -16.6935 O   0  0  0  0  0  0  0  0  0  0  0  0
  -27.5596   15.8595  -16.1203 N   0  0  0  0  0  0  0  0  0  0  0  0
  -26.3448   15.1527  -16.4481 C   0  0  0  0  0  0  0  0  0  0  0  0
  -28.8485   17.3471  -18.4368 H   0  0  0  0  0  0  0  0  0  0  0  0
  -32.1338   19.5809  -17.4910 H   0  0  0  0  0  0  0  0  0  0  0  0
  -27.4783   16.8064  -15.7716 H   0  0  0  0  0  0  0  0  0  0  0  0
  1  2  1  0  0  0  0
  2  3  2  0  0  0  0
  3  4  1  0  0  0  0
  3  8  1  0  0  0  0
  4  5  1  0  0  0  0
  4  9  1  6  0  0  0
  5  6  1  0  0  0  0
  5 14  1  0  0  0  0
  6  7  2  0  0  0  0
  6  8  1  0  0  0  0
  8 15  1  0  0  0  0
  9 10  1  0  0  0  0
 10 11  2  0  0  0  0
 10 12  1  0  0  0  0
 12 13  1  0  0  0  0
 12 16  1  0  0  0  0
M  END
>  <CHROM.0>
-59.48367475,-59.53335911,-65.20012080,-43.46882318,179.27732878,-58.16091050
-68.43948409,-173.72909206,-169.38388470

>  <CHROM.1>
172.96055034,-138.53595980,-29.61905590,17.12590522,-16.87967118,2.76263371
0.81570408,-1.37466929

>  <Name>
P136208459

>  <RI>
0

>  <Rbt.Current_Directory>
/home/fstefaniak/projects/zuza/docking/adenine/4TZX

>  <Rbt.Executable>
rbdock ($Id: //depot/dev/client3/rdock/2013.1/src/exe/rbdock.cxx#4 $)

>  <Rbt.Library>
libRbt.so (2013.1, Build901 2013/11/27)

>  <Rbt.Parameter_File>
/home/fstefaniak/progs/rDock//data/scripts/dock_solv.prm

>  <Rbt.Receptor>
4tzx.prm

>  <SCORE>
-51.3497

>  <SCORE.INTER>
-31.2506

>  <SCORE.INTER.CONST>
1

>  <SCORE.INTER.POLAR>
-3.0838

>  <SCORE.INTER.ROT>
2

>  <SCORE.INTER.SOLV>
17.5182

>  <SCORE.INTER.VDW>
-21.3271

>  <SCORE.INTER.norm>
-2.60422

>  <SCORE.INTRA>
1.12007

>  <SCORE.INTRA.DIHEDRAL>
-0.22305

>  <SCORE.INTRA.DIHEDRAL.0>
2.18805

>  <SCORE.INTRA.POLAR>
0.204173

>  <SCORE.INTRA.POLAR.0>
-0.204173

>  <SCORE.INTRA.REPUL>
0

>  <SCORE.INTRA.REPUL.0>
0

>  <SCORE.INTRA.SOLV>
0.453585

>  <SCORE.INTRA.SOLV.lig_0>
-26.9986

>  <SCORE.INTRA.VDW>
0.310616

>  <SCORE.INTRA.VDW.0>
-0.430334

>  <SCORE.INTRA.norm>
0.0933393

>  <SCORE.RESTR>
0

>  <SCORE.RESTR.CAVITY>
0

>  <SCORE.RESTR.norm>
0

>  <SCORE.SYSTEM>
-21.2191

>  <SCORE.SYSTEM.CONST>
0

>  <SCORE.SYSTEM.DIHEDRAL>
4.4921

>  <SCORE.SYSTEM.POLAR>
-3.04066

>  <SCORE.SYSTEM.SOLV>
-0.127185

>  <SCORE.SYSTEM.VDW>
-5.46555

>  <SCORE.SYSTEM.norm>
-1.76826

>  <SCORE.heavy>
12

>  <SCORE.norm>
-4.27914

$$$$
P136208459
 OpenBabel12072022113D
libRbt.so/2013.1/901 2013/11/27
 16 16  0  0  0  0  0  0  0  0999 V2000
  -30.7650   18.4935  -14.2914 H   0  0  0  0  0  0  0  0  0  0  0  0
  -31.3010   18.9032  -15.0796 N   0  0  0  0  0  0  0  0  0  0  0  0
  -30.8028   18.5055  -16.1954 C   0  0  0  0  0  0  0  0  0  0  0  0
  -29.6259   17.5647  -16.4163 C   0  0  2  0  0  0  0  0  0  0  0  0
  -29.5594   17.6585  -17.8612 N   0  0  0  0  0  0  0  0  0  0  0  0
  -30.5433   18.4664  -18.3892 C   0  0  0  0  0  0  0  0  0  0  0  0
  -30.6630   18.7343  -19.5707 O   0  0  0  0  0  0  0  0  0  0  0  0
  -31.3125   18.9187  -17.3723 N   0  0  0  0  0  0  0  0  0  0  0  0
  -29.9457   16.1489  -15.9648 C   0  0  0  0  0  0  0  0  0  0  0  0
  -28.7953   15.2155  -16.2649 C   0  0  0  0  0  0  0  0  0  0  0  0
  -28.9593   14.0457  -16.5957 O   0  0  0  0  0  0  0  0  0  0  0  0
  -27.5637   15.8168  -16.1482 N   0  0  0  0  0  0  0  0  0  0  0  0
  -26.3314   15.1190  -16.4260 C   0  0  0  0  0  0  0  0  0  0  0  0
  -28.8198   17.3011  -18.4516 H   0  0  0  0  0  0  0  0  0  0  0  0
  -32.0668   19.5759  -17.4722 H   0  0  0  0  0  0  0  0  0  0  0  0
  -27.5064   16.7881  -15.8686 H   0  0  0  0  0  0  0  0  0  0  0  0
  1  2  1  0  0  0  0
  2  3  2  0  0  0  0
  3  4  1  0  0  0  0
  3  8  1  0  0  0  0
  4  5  1  0  0  0  0
  4  9  1  6  0  0  0
  5  6  1  0  0  0  0
  5 14  1  0  0  0  0
  6  7  2  0  0  0  0
  6  8  1  0  0  0  0
  8 15  1  0  0  0  0
  9 10  1  0  0  0  0
 10 11  2  0  0  0  0
 10 12  1  0  0  0  0
 12 13  1  0  0  0  0
 12 16  1  0  0  0  0
M  END
>  <CHROM.0>
-62.03059775,-63.04593748,-69.25210808,-43.44077237,-60.60114684,-61.13956469
-66.56225858,-169.42775683,-169.57867340

>  <CHROM.1>
176.75456727,-144.97123560,-29.59055867,17.07199435,-16.87436993,2.69969637
0.81009705,-1.30405090

>  <Name>
P136208459

>  <RI>
0

>  <Rbt.Current_Directory>
/home/fstefaniak/projects/zuza/docking/adenine/4TZX

>  <Rbt.Executable>
rbdock ($Id: //depot/dev/client3/rdock/2013.1/src/exe/rbdock.cxx#4 $)

>  <Rbt.Library>
libRbt.so (2013.1, Build901 2013/11/27)

>  <Rbt.Parameter_File>
/home/fstefaniak/progs/rDock//data/scripts/dock_solv.prm

>  <Rbt.Receptor>
4tzx.prm

>  <SCORE>
-51.0019

>  <SCORE.INTER>
-31.7011

>  <SCORE.INTER.CONST>
1

>  <SCORE.INTER.POLAR>
-3.1472

>  <SCORE.INTER.ROT>
2

>  <SCORE.INTER.SOLV>
17.4199

>  <SCORE.INTER.VDW>
-21.3834

>  <SCORE.INTER.norm>
-2.64176

>  <SCORE.INTRA>
1.71015

>  <SCORE.INTRA.DIHEDRAL>
-0.0944544

>  <SCORE.INTRA.DIHEDRAL.0>
2.18805

>  <SCORE.INTRA.POLAR>
0.204173

>  <SCORE.INTRA.POLAR.0>
-0.204173

>  <SCORE.INTRA.REPUL>
0

>  <SCORE.INTRA.REPUL.0>
0

>  <SCORE.INTRA.SOLV>
0.456004

>  <SCORE.INTRA.SOLV.lig_0>
-26.9986

>  <SCORE.INTRA.VDW>
0.835184

>  <SCORE.INTRA.VDW.0>
-0.430334

>  <SCORE.INTRA.norm>
0.142512

>  <SCORE.RESTR>
0

>  <SCORE.RESTR.CAVITY>
0

>  <SCORE.RESTR.norm>
0

>  <SCORE.SYSTEM>
-21.011

>  <SCORE.SYSTEM.CONST>
0

>  <SCORE.SYSTEM.DIHEDRAL>
4.98211

>  <SCORE.SYSTEM.POLAR>
-3.01154

>  <SCORE.SYSTEM.SOLV>
0.0390371

>  <SCORE.SYSTEM.VDW>
-5.64254

>  <SCORE.SYSTEM.norm>
-1.75091

>  <SCORE.heavy>
12

>  <SCORE.norm>
-4.25016

$$$$
P136208459
 OpenBabel12072022113D
libRbt.so/2013.1/901 2013/11/27
 16 16  0  0  0  0  0  0  0  0999 V2000
  -30.8162   18.5352  -14.2948 H   0  0  0  0  0  0  0  0  0  0  0  0
  -31.3540   18.9293  -15.0897 N   0  0  0  0  0  0  0  0  0  0  0  0
  -30.8459   18.5260  -16.1990 C   0  0  0  0  0  0  0  0  0  0  0  0
  -29.6559   17.5983  -16.4047 C   0  0  2  0  0  0  0  0  0  0  0  0
  -29.5844   17.6771  -17.8502 N   0  0  0  0  0  0  0  0  0  0  0  0
  -30.5764   18.4664  -18.3911 C   0  0  0  0  0  0  0  0  0  0  0  0
  -30.6944   18.7198  -19.5760 O   0  0  0  0  0  0  0  0  0  0  0  0
  -31.3558   18.9197  -17.3824 N   0  0  0  0  0  0  0  0  0  0  0  0
  -29.9593   16.1834  -15.9390 C   0  0  0  0  0  0  0  0  0  0  0  0
  -28.8178   15.2505  -16.2730 C   0  0  0  0  0  0  0  0  0  0  0  0
  -28.9929   14.0958  -16.6480 O   0  0  0  0  0  0  0  0  0  0  0  0
  -27.5805   15.8346  -16.1322 N   0  0  0  0  0  0  0  0  0  0  0  0
  -26.3547   15.1355  -16.4349 C   0  0  0  0  0  0  0  0  0  0  0  0
  -28.8377   17.3230  -18.4336 H   0  0  0  0  0  0  0  0  0  0  0  0
  -32.1182   19.5658  -17.4927 H   0  0  0  0  0  0  0  0  0  0  0  0
  -27.5139   16.7940  -15.8161 H   0  0  0  0  0  0  0  0  0  0  0  0
  1  2  1  0  0  0  0
  2  3  2  0  0  0  0
  3  4  1  0  0  0  0
  3  8  1  0  0  0  0
  4  5  1  0  0  0  0
  4  9  1  6  0  0  0
  5  6  1  0  0  0  0
  5 14  1  0  0  0  0
  6  7  2  0  0  0  0
  6  8  1  0  0  0  0
  8 15  1  0  0  0  0
  9 10  1  0  0  0  0
 10 11  2  0  0  0  0
 10 12  1  0  0  0  0
 12 13  1  0  0  0  0
 12 16  1  0  0  0  0
M  END
>  <CHROM.0>
-56.88599678,-63.75012054,-72.92529058,-43.79569396,-177.42102897,-176.80679707
-173.51912660,-58.60694510,-168.27352003

>  <CHROM.1>
174.52979066,-141.89112099,-29.62125671,17.09170073,-16.87767590,2.72159519
0.80896177,-1.32590717

>  <Name>
P136208459

>  <RI>
0

>  <Rbt.Current_Directory>
/home/fstefaniak/projects/zuza/docking/adenine/4TZX

>  <Rbt.Executable>
rbdock ($Id: //depot/dev/client3/rdock/2013.1/src/exe/rbdock.cxx#4 $)

>  <Rbt.Library>
libRbt.so (2013.1, Build901 2013/11/27)

>  <Rbt.Parameter_File>
/home/fstefaniak/progs/rDock//data/scripts/dock_solv.prm

>  <Rbt.Receptor>
4tzx.prm

>  <SCORE>
-50.614

>  <SCORE.INTER>
-31.5119

>  <SCORE.INTER.CONST>
1

>  <SCORE.INTER.POLAR>
-3.09485

>  <SCORE.INTER.ROT>
2

>  <SCORE.INTER.SOLV>
17.4512

>  <SCORE.INTER.VDW>
-21.4422

>  <SCORE.INTER.norm>
-2.62599

>  <SCORE.INTRA>
1.39263

>  <SCORE.INTRA.DIHEDRAL>
-0.156618

>  <SCORE.INTRA.DIHEDRAL.0>
2.18805

>  <SCORE.INTRA.POLAR>
0.204173

>  <SCORE.INTRA.POLAR.0>
-0.204173

>  <SCORE.INTRA.REPUL>
0

>  <SCORE.INTRA.REPUL.0>
0

>  <SCORE.INTRA.SOLV>
0.465774

>  <SCORE.INTRA.SOLV.lig_0>
-26.9986

>  <SCORE.INTRA.VDW>
0.543862

>  <SCORE.INTRA.VDW.0>
-0.430334

>  <SCORE.INTRA.norm>
0.116052

>  <SCORE.RESTR>
0

>  <SCORE.RESTR.CAVITY>
0

>  <SCORE.RESTR.norm>
0

>  <SCORE.SYSTEM>
-20.4947

>  <SCORE.SYSTEM.CONST>
0

>  <SCORE.SYSTEM.DIHEDRAL>
5.03537

>  <SCORE.SYSTEM.POLAR>
-3.0348

>  <SCORE.SYSTEM.SOLV>
-0.144769

>  <SCORE.SYSTEM.VDW>
-5.17736

>  <SCORE.SYSTEM.norm>
-1.70789

>  <SCORE.heavy>
12

>  <SCORE.norm>
-4.21784

$$$$
P136208555
 OpenBabel12072022113D
libRbt.so/2013.1/901 2013/11/27
 15 16  0  0  0  0  0  0  0  0999 V2000
  -31.7877   17.5419  -14.1771 H   0  0  0  0  0  0  0  0  0  0  0  0
  -30.9480   16.9914  -14.3791 N   0  0  0  0  0  0  0  0  0  0  0  0
  -30.5922   17.1599  -15.6023 C   0  0  0  0  0  0  0  0  0  0  0  0
  -29.3906   16.5165  -16.2849 C   0  0  1  0  0  0  0  0  0  0  0  0
  -28.0698   16.9712  -15.6646 C   0  0  0  0  0  0  0  0  0  0  0  0
  -26.8919   16.2021  -16.2607 C   0  0  0  0  0  0  0  0  0  0  0  0
  -27.1547   14.7015  -16.2382 C   0  0  0  0  0  0  0  0  0  0  0  0
  -28.3677   14.3918  -16.9256 O   0  0  0  0  0  0  0  0  0  0  0  0
  -29.5105   14.9910  -16.2953 C   0  0  0  0  0  0  0  0  0  0  0  0
  -29.5781   17.0908  -17.6068 N   0  0  0  0  0  0  0  0  0  0  0  0
  -30.6843   17.9002  -17.6861 C   0  0  0  0  0  0  0  0  0  0  0  0
  -31.0835   18.4570  -18.6922 O   0  0  0  0  0  0  0  0  0  0  0  0
  -31.2641   17.9563  -16.4613 N   0  0  0  0  0  0  0  0  0  0  0  0
  -29.0428   16.8389  -18.4279 H   0  0  0  0  0  0  0  0  0  0  0  0
  -32.1007   18.4867  -16.2919 H   0  0  0  0  0  0  0  0  0  0  0  0
  1  2  1  0  0  0  0
  2  3  2  0  0  0  0
  3 13  1  0  0  0  0
  4  3  1  0  0  0  0
  4  5  1  1  0  0  0
  4  9  1  0  0  0  0
  4 10  1  0  0  0  0
  5  6  1  0  0  0  0
  6  7  1  0  0  0  0
  7  8  1  0  0  0  0
  8  9  1  0  0  0  0
 10 11  1  0  0  0  0
 10 14  1  0  0  0  0
 11 12  2  0  0  0  0
 11 13  1  0  0  0  0
 13 15  1  0  0  0  0
M  END
>  <CHROM.0>
-61.53404080,-60.96216966,-66.99532568,-43.25924905,-177.29304035,-63.76874083
-69.21059332,-177.45509560,-168.92579936

>  <CHROM.1>
-29.46694953,16.60351674,-16.53423998,2.77529699,0.62966521,-1.28059052

>  <Name>
P136208555

>  <RI>
0

>  <Rbt.Current_Directory>
/home/fstefaniak/projects/zuza/docking/adenine/4TZX

>  <Rbt.Executable>
rbdock ($Id: //depot/dev/client3/rdock/2013.1/src/exe/rbdock.cxx#4 $)

>  <Rbt.Library>
libRbt.so (2013.1, Build901 2013/11/27)

>  <Rbt.Parameter_File>
/home/fstefaniak/progs/rDock//data/scripts/dock_solv.prm

>  <Rbt.Receptor>
4tzx.prm

>  <SCORE>
-42.3905

>  <SCORE.INTER>
-21.0394

>  <SCORE.INTER.CONST>
1

>  <SCORE.INTER.POLAR>
-2.09684

>  <SCORE.INTER.ROT>
0

>  <SCORE.INTER.SOLV>
12.4988

>  <SCORE.INTER.VDW>
-14.8031

>  <SCORE.INTER.norm>
-1.75329

>  <SCORE.INTRA>
0

>  <SCORE.INTRA.DIHEDRAL>
0

>  <SCORE.INTRA.DIHEDRAL.0>
0

>  <SCORE.INTRA.POLAR>
0

>  <SCORE.INTRA.POLAR.0>
0

>  <SCORE.INTRA.REPUL>
0

>  <SCORE.INTRA.REPUL.0>
0

>  <SCORE.INTRA.SOLV>
0

>  <SCORE.INTRA.SOLV.lig_0>
-17.9194

>  <SCORE.INTRA.VDW>
0

>  <SCORE.INTRA.VDW.0>
0

>  <SCORE.INTRA.norm>
0

>  <SCORE.RESTR>
0

>  <SCORE.RESTR.CAVITY>
0

>  <SCORE.RESTR.norm>
0

>  <SCORE.SYSTEM>
-21.351

>  <SCORE.SYSTEM.CONST>
0

>  <SCORE.SYSTEM.DIHEDRAL>
4.66802

>  <SCORE.SYSTEM.POLAR>
-3.03763

>  <SCORE.SYSTEM.SOLV>
-0.148561

>  <SCORE.SYSTEM.VDW>
-5.61507

>  <SCORE.SYSTEM.norm>
-1.77925

>  <SCORE.heavy>
12

>  <SCORE.norm>
-3.53254

$$$$
P136208555
 OpenBabel12072022113D
libRbt.so/2013.1/901 2013/11/27
 15 16  0  0  0  0  0  0  0  0999 V2000
  -31.7756   17.4786  -14.1563 H   0  0  0  0  0  0  0  0  0  0  0  0
  -30.9332   16.9347  -14.3649 N   0  0  0  0  0  0  0  0  0  0  0  0
  -30.5797   17.1179  -15.5866 C   0  0  0  0  0  0  0  0  0  0  0  0
  -29.3754   16.4879  -16.2771 C   0  0  1  0  0  0  0  0  0  0  0  0
  -28.0563   16.9432  -15.6535 C   0  0  0  0  0  0  0  0  0  0  0  0
  -26.8751   16.1865  -16.2588 C   0  0  0  0  0  0  0  0  0  0  0  0
  -27.1299   14.6844  -16.2516 C   0  0  0  0  0  0  0  0  0  0  0  0
  -28.3420   14.3754  -16.9409 O   0  0  0  0  0  0  0  0  0  0  0  0
  -29.4873   14.9620  -16.3032 C   0  0  0  0  0  0  0  0  0  0  0  0
  -29.5674   17.0750  -17.5928 N   0  0  0  0  0  0  0  0  0  0  0  0
  -30.6779   17.8793  -17.6625 C   0  0  0  0  0  0  0  0  0  0  0  0
  -31.0812   18.4444  -18.6624 O   0  0  0  0  0  0  0  0  0  0  0  0
  -31.2566   17.9196  -16.4367 N   0  0  0  0  0  0  0  0  0  0  0  0
  -29.0317   16.8344  -18.4170 H   0  0  0  0  0  0  0  0  0  0  0  0
  -32.0959   18.4437  -16.2608 H   0  0  0  0  0  0  0  0  0  0  0  0
  1  2  1  0  0  0  0
  2  3  2  0  0  0  0
  3 13  1  0  0  0  0
  4  3  1  0  0  0  0
  4  5  1  1  0  0  0
  4  9  1  0  0  0  0
  4 10  1  0  0  0  0
  5  6  1  0  0  0  0
  6  7  1  0  0  0  0
  7  8  1  0  0  0  0
  8  9  1  0  0  0  0
 10 11  1  0  0  0  0
 10 14  1  0  0  0  0
 11 12  2  0  0  0  0
 11 13  1  0  0  0  0
 13 15  1  0  0  0  0
M  END
>  <CHROM.0>
-63.17903568,-59.42739292,-68.06972296,-43.00776090,-178.49412494,-62.38417053
-68.16411816,-60.12919563,-169.67381490

>  <CHROM.1>
-29.45247688,16.57711174,-16.52545895,2.77843921,0.62491444,-1.27203881

>  <Name>
P136208555

>  <RI>
0

>  <Rbt.Current_Directory>
/home/fstefaniak/projects/zuza/docking/adenine/4TZX

>  <Rbt.Executable>
rbdock ($Id: //depot/dev/client3/rdock/2013.1/src/exe/rbdock.cxx#4 $)

>  <Rbt.Library>
libRbt.so (2013.1, Build901 2013/11/27)

>  <Rbt.Parameter_File>
/home/fstefaniak/progs/rDock//data/scripts/dock_solv.prm

>  <Rbt.Receptor>
4tzx.prm

>  <SCORE>
-42.3509

>  <SCORE.INTER>
-21.0781

>  <SCORE.INTER.CONST>
1

>  <SCORE.INTER.POLAR>
-2.09684

>  <SCORE.INTER.ROT>
0

>  <SCORE.INTER.SOLV>
12.4635

>  <SCORE.INTER.VDW>
-14.8171

>  <SCORE.INTER.norm>
-1.75651

>  <SCORE.INTRA>
0

>  <SCORE.INTRA.DIHEDRAL>
0

>  <SCORE.INTRA.DIHEDRAL.0>
0

>  <SCORE.INTRA.POLAR>
0

>  <SCORE.INTRA.POLAR.0>
0

>  <SCORE.INTRA.REPUL>
0

>  <SCORE.INTRA.REPUL.0>
0

>  <SCORE.INTRA.SOLV>
0

>  <SCORE.INTRA.SOLV.lig_0>
-17.9194

>  <SCORE.INTRA.VDW>
0

>  <SCORE.INTRA.VDW.0>
0

>  <SCORE.INTRA.norm>
0

>  <SCORE.RESTR>
0

>  <SCORE.RESTR.CAVITY>
0

>  <SCORE.RESTR.norm>
0

>  <SCORE.SYSTEM>
-21.2728

>  <SCORE.SYSTEM.CONST>
0

>  <SCORE.SYSTEM.DIHEDRAL>
4.56863

>  <SCORE.SYSTEM.POLAR>
-3.01183

>  <SCORE.SYSTEM.SOLV>
-0.0136104

>  <SCORE.SYSTEM.VDW>
-5.66078

>  <SCORE.SYSTEM.norm>
-1.77273

>  <SCORE.heavy>
12

>  <SCORE.norm>
-3.52924

$$$$
P136208555
 OpenBabel12072022113D
libRbt.so/2013.1/901 2013/11/27
 15 16  0  0  0  0  0  0  0  0999 V2000
  -31.7098   17.5207  -14.1417 H   0  0  0  0  0  0  0  0  0  0  0  0
  -30.8793   16.9621  -14.3588 N   0  0  0  0  0  0  0  0  0  0  0  0
  -30.5395   17.1332  -15.5862 C   0  0  0  0  0  0  0  0  0  0  0  0
  -29.3552   16.4802  -16.2896 C   0  0  1  0  0  0  0  0  0  0  0  0
  -28.0205   16.9170  -15.6863 C   0  0  0  0  0  0  0  0  0  0  0  0
  -26.8601   16.1381  -16.3036 C   0  0  0  0  0  0  0  0  0  0  0  0
  -27.1393   14.6404  -16.2850 C   0  0  0  0  0  0  0  0  0  0  0  0
  -28.3655   14.3478  -16.9562 O   0  0  0  0  0  0  0  0  0  0  0  0
  -29.4923   14.9563  -16.3062 C   0  0  0  0  0  0  0  0  0  0  0  0
  -29.5556   17.0637  -17.6056 N   0  0  0  0  0  0  0  0  0  0  0  0
  -30.6537   17.8857  -17.6645 C   0  0  0  0  0  0  0  0  0  0  0  0
  -31.0613   18.4522  -18.6618 O   0  0  0  0  0  0  0  0  0  0  0  0
  -31.2149   17.9416  -16.4311 N   0  0  0  0  0  0  0  0  0  0  0  0
  -29.0351   16.8102  -18.4357 H   0  0  0  0  0  0  0  0  0  0  0  0
  -32.0431   18.4803  -16.2467 H   0  0  0  0  0  0  0  0  0  0  0  0
  1  2  1  0  0  0  0
  2  3  2  0  0  0  0
  3 13  1  0  0  0  0
  4  3  1  0  0  0  0
  4  5  1  1  0  0  0
  4  9  1  0  0  0  0
  4 10  1  0  0  0  0
  5  6  1  0  0  0  0
  6  7  1  0  0  0  0
  7  8  1  0  0  0  0
  8  9  1  0  0  0  0
 10 11  1  0  0  0  0
 10 14  1  0  0  0  0
 11 12  2  0  0  0  0
 11 13  1  0  0  0  0
 13 15  1  0  0  0  0
M  END
>  <CHROM.0>
-60.93782218,-58.01008273,-66.43400658,-43.62869469,-177.20720958,-62.24700347
-67.70927304,-57.58646657,-168.99932590

>  <CHROM.1>
-29.43422418,16.56941437,-16.53734528,2.78876137,0.64446223,-1.28331361

>  <Name>
P136208555

>  <RI>
0

>  <Rbt.Current_Directory>
/home/fstefaniak/projects/zuza/docking/adenine/4TZX

>  <Rbt.Executable>
rbdock ($Id: //depot/dev/client3/rdock/2013.1/src/exe/rbdock.cxx#4 $)

>  <Rbt.Library>
libRbt.so (2013.1, Build901 2013/11/27)

>  <Rbt.Parameter_File>
/home/fstefaniak/progs/rDock//data/scripts/dock_solv.prm

>  <Rbt.Receptor>
4tzx.prm

>  <SCORE>
-42.293

>  <SCORE.INTER>
-20.9661

>  <SCORE.INTER.CONST>
1

>  <SCORE.INTER.POLAR>
-2.08929

>  <SCORE.INTER.ROT>
0

>  <SCORE.INTER.SOLV>
12.4141

>  <SCORE.INTER.VDW>
-14.7511

>  <SCORE.INTER.norm>
-1.74718

>  <SCORE.INTRA>
0

>  <SCORE.INTRA.DIHEDRAL>
0

>  <SCORE.INTRA.DIHEDRAL.0>
0

>  <SCORE.INTRA.POLAR>
0

>  <SCORE.INTRA.POLAR.0>
0

>  <SCORE.INTRA.REPUL>
0

>  <SCORE.INTRA.REPUL.0>
0

>  <SCORE.INTRA.SOLV>
0

>  <SCORE.INTRA.SOLV.lig_0>
-17.9194

>  <SCORE.INTRA.VDW>
0

>  <SCORE.INTRA.VDW.0>
0

>  <SCORE.INTRA.norm>
0

>  <SCORE.RESTR>
0

>  <SCORE.RESTR.CAVITY>
0

>  <SCORE.RESTR.norm>
0

>  <SCORE.SYSTEM>
-21.3269

>  <SCORE.SYSTEM.CONST>
0

>  <SCORE.SYSTEM.DIHEDRAL>
4.42905

>  <SCORE.SYSTEM.POLAR>
-3.03774

>  <SCORE.SYSTEM.SOLV>
-0.0020165

>  <SCORE.SYSTEM.VDW>
-5.56781

>  <SCORE.SYSTEM.norm>
-1.77724

>  <SCORE.heavy>
12

>  <SCORE.norm>
-3.52442

$$$$
P136260037
 OpenBabel12072022113D
libRbt.so/2013.1/901 2013/11/27
 15 15  0  0  0  0  0  0  0  0999 V2000
  -24.9540   10.9553  -16.0063 C   0  0  0  0  0  0  0  0  0  0  0  0
  -25.7895   12.0071  -15.2699 C   0  0  1  0  0  0  0  0  0  0  0  0
  -25.2583   13.4340  -15.5280 C   0  0  0  0  0  0  0  0  0  0  0  0
  -25.6133   13.9627  -16.9324 C   0  0  1  0  0  0  0  0  0  0  0  0
  -27.1253   13.8033  -17.1847 C   0  0  0  0  0  0  0  0  0  0  0  0
  -27.5075   12.4048  -16.9929 N   0  0  0  0  0  0  0  0  0  0  0  0
  -27.2792   11.8990  -15.6434 C   0  0  0  0  0  0  0  0  0  0  0  0
  -27.8476   11.5221  -17.9878 C   0  0  0  0  0  0  0  0  0  0  0  0
  -28.1572   10.3499  -17.8030 O   0  0  0  0  0  0  0  0  0  0  0  0
  -27.8242   12.0028  -19.2543 N   0  0  0  0  0  0  0  0  0  0  0  0
  -25.1873   15.3574  -17.0795 N   0  0  0  0  0  0  0  0  0  0  0  0
  -28.5444   12.6607  -19.5101 H   0  0  0  0  0  0  0  0  0  0  0  0
  -26.8954   12.2895  -19.5361 H   0  0  0  0  0  0  0  0  0  0  0  0
  -25.2127   15.6172  -18.0658 H   0  0  0  0  0  0  0  0  0  0  0  0
  -24.2134   15.4568  -16.7924 H   0  0  0  0  0  0  0  0  0  0  0  0
  2  1  1  6  0  0  0
  2  3  1  0  0  0  0
  2  7  1  0  0  0  0
  3  4  1  0  0  0  0
  4  5  1  0  0  0  0
  4 11  1  1  0  0  0
  5  6  1  0  0  0  0
  6  7  1  0  0  0  0
  6  8  1  0  0  0  0
  8  9  2  0  0  0  0
  8 10  1  0  0  0  0
 10 12  1  0  0  0  0
 10 13  1  0  0  0  0
 11 14  1  0  0  0  0
 11 15  1  0  0  0  0
M  END
>  <CHROM.0>
-57.45648383,-58.95119958,-62.88665732,-42.96879496,-58.16087288,-53.49432367
-69.42406229,-63.17093869,-168.80609441

>  <CHROM.1>
165.97388959,-70.82260005,-26.58953962,12.52547658,-16.92255544,-0.42228618
0.82963081,2.64484231

>  <Name>
P136260037

>  <RI>
0

>  <Rbt.Current_Directory>
/home/fstefaniak/projects/zuza/docking/adenine/4TZX

>  <Rbt.Executable>
rbdock ($Id: //depot/dev/client3/rdock/2013.1/src/exe/rbdock.cxx#4 $)

>  <Rbt.Library>
libRbt.so (2013.1, Build901 2013/11/27)

>  <Rbt.Parameter_File>
/home/fstefaniak/progs/rDock//data/scripts/dock_solv.prm

>  <Rbt.Receptor>
4tzx.prm

>  <SCORE>
-43.7256

>  <SCORE.INTER>
-23.3875

>  <SCORE.INTER.CONST>
1

>  <SCORE.INTER.POLAR>
-3.06574

>  <SCORE.INTER.ROT>
2

>  <SCORE.INTER.SOLV>
8.65877

>  <SCORE.INTER.VDW>
-13.1922

>  <SCORE.INTER.norm>
-2.12614

>  <SCORE.INTRA>
-0.24273

>  <SCORE.INTRA.DIHEDRAL>
0.223506

>  <SCORE.INTRA.DIHEDRAL.0>
0.492214

>  <SCORE.INTRA.POLAR>
0

>  <SCORE.INTRA.POLAR.0>
0

>  <SCORE.INTRA.REPUL>
0

>  <SCORE.INTRA.REPUL.0>
0

>  <SCORE.INTRA.SOLV>
-0.0103837

>  <SCORE.INTRA.SOLV.lig_0>
-13.7403

>  <SCORE.INTRA.VDW>
-0.349292

>  <SCORE.INTRA.VDW.0>
-0.0272159

>  <SCORE.INTRA.norm>
-0.0220664

>  <SCORE.RESTR>
0.868519

>  <SCORE.RESTR.CAVITY>
0.868519

>  <SCORE.RESTR.norm>
0.0789563

>  <SCORE.SYSTEM>
-20.9639

>  <SCORE.SYSTEM.CONST>
0

>  <SCORE.SYSTEM.DIHEDRAL>
4.69965

>  <SCORE.SYSTEM.POLAR>
-3.10022

>  <SCORE.SYSTEM.SOLV>
0.197933

>  <SCORE.SYSTEM.VDW>
-5.27435

>  <SCORE.SYSTEM.norm>
-1.9058

>  <SCORE.heavy>
11

>  <SCORE.norm>
-3.97505

$$$$
P136260037
 OpenBabel12072022113D
libRbt.so/2013.1/901 2013/11/27
 15 15  0  0  0  0  0  0  0  0999 V2000
  -24.9746   10.9563  -15.9738 C   0  0  0  0  0  0  0  0  0  0  0  0
  -25.8311   12.0147  -15.2719 C   0  0  1  0  0  0  0  0  0  0  0  0
  -25.2913   13.4391  -15.5260 C   0  0  0  0  0  0  0  0  0  0  0  0
  -25.6034   13.9560  -16.9449 C   0  0  1  0  0  0  0  0  0  0  0  0
  -27.1072   13.7952  -17.2413 C   0  0  0  0  0  0  0  0  0  0  0  0
  -27.4960   12.3986  -17.0493 N   0  0  0  0  0  0  0  0  0  0  0  0
  -27.3089   11.9041  -15.6893 C   0  0  0  0  0  0  0  0  0  0  0  0
  -27.8066   11.5076  -18.0465 C   0  0  0  0  0  0  0  0  0  0  0  0
  -28.1225   10.3372  -17.8612 O   0  0  0  0  0  0  0  0  0  0  0  0
  -27.7446   11.9775  -19.3157 N   0  0  0  0  0  0  0  0  0  0  0  0
  -25.1721   15.3492  -17.0908 N   0  0  0  0  0  0  0  0  0  0  0  0
  -28.4523   12.6387  -19.5966 H   0  0  0  0  0  0  0  0  0  0  0  0
  -26.8062   12.2548  -19.5742 H   0  0  0  0  0  0  0  0  0  0  0  0
  -25.1768   15.6036  -18.0788 H   0  0  0  0  0  0  0  0  0  0  0  0
  -24.2041   15.4487  -16.7844 H   0  0  0  0  0  0  0  0  0  0  0  0
  2  1  1  6  0  0  0
  2  3  1  0  0  0  0
  2  7  1  0  0  0  0
  3  4  1  0  0  0  0
  4  5  1  0  0  0  0
  4 11  1  1  0  0  0
  5  6  1  0  0  0  0
  6  7  1  0  0  0  0
  6  8  1  0  0  0  0
  8  9  2  0  0  0  0
  8 10  1  0  0  0  0
 10 12  1  0  0  0  0
 10 13  1  0  0  0  0
 11 14  1  0  0  0  0
 11 15  1  0  0  0  0
M  END
>  <CHROM.0>
-61.32401844,-177.06815358,-65.46803275,-42.39542088,59.36274709,-178.28091361
-67.17043652,-60.93923899,-169.33078699

>  <CHROM.1>
166.55896745,-70.38854784,-26.58051409,12.51938875,-16.95235220,-0.39948814
0.85571487,2.61926690

>  <Name>
P136260037

>  <RI>
0

>  <Rbt.Current_Directory>
/home/fstefaniak/projects/zuza/docking/adenine/4TZX

>  <Rbt.Executable>
rbdock ($Id: //depot/dev/client3/rdock/2013.1/src/exe/rbdock.cxx#4 $)

>  <Rbt.Library>
libRbt.so (2013.1, Build901 2013/11/27)

>  <Rbt.Parameter_File>
/home/fstefaniak/progs/rDock//data/scripts/dock_solv.prm

>  <Rbt.Receptor>
4tzx.prm

>  <SCORE>
-42.2153

>  <SCORE.INTER>
-22.7538

>  <SCORE.INTER.CONST>
1

>  <SCORE.INTER.POLAR>
-3.06886

>  <SCORE.INTER.ROT>
2

>  <SCORE.INTER.SOLV>
8.66697

>  <SCORE.INTER.VDW>
-12.762

>  <SCORE.INTER.norm>
-2.06853

>  <SCORE.INTRA>
-0.258993

>  <SCORE.INTRA.DIHEDRAL>
0.202896

>  <SCORE.INTRA.DIHEDRAL.0>
0.492214

>  <SCORE.INTRA.POLAR>
0

>  <SCORE.INTRA.POLAR.0>
0

>  <SCORE.INTRA.REPUL>
0

>  <SCORE.INTRA.REPUL.0>
0

>  <SCORE.INTRA.SOLV>
-0.0105057

>  <SCORE.INTRA.SOLV.lig_0>
-13.7403

>  <SCORE.INTRA.VDW>
-0.355188

>  <SCORE.INTRA.VDW.0>
-0.0272159

>  <SCORE.INTRA.norm>
-0.0235448

>  <SCORE.RESTR>
0.839161

>  <SCORE.RESTR.CAVITY>
0.839161

>  <SCORE.RESTR.norm>
0.0762874

>  <SCORE.SYSTEM>
-20.0417

>  <SCORE.SYSTEM.CONST>
0

>  <SCORE.SYSTEM.DIHEDRAL>
4.44766

>  <SCORE.SYSTEM.POLAR>
-3.04423

>  <SCORE.SYSTEM.SOLV>
-0.181009

>  <SCORE.SYSTEM.VDW>
-4.63589

>  <SCORE.SYSTEM.norm>
-1.82197

>  <SCORE.heavy>
11

>  <SCORE.norm>
-3.83776

$$$$
P136260037
 OpenBabel12072022113D
libRbt.so/2013.1/901 2013/11/27
 15 15  0  0  0  0  0  0  0  0999 V2000
  -24.7314   11.1937  -16.4896 C   0  0  0  0  0  0  0  0  0  0  0  0
  -25.5667   11.9903  -15.4824 C   0  0  1  0  0  0  0  0  0  0  0  0
  -25.1061   13.4621  -15.4037 C   0  0  0  0  0  0  0  0  0  0  0  0
  -25.5560   14.2986  -16.6185 C   0  0  1  0  0  0  0  0  0  0  0  0
  -27.0719   14.1287  -16.8381 C   0  0  0  0  0  0  0  0  0  0  0  0
  -27.3885   12.7082  -16.9804 N   0  0  0  0  0  0  0  0  0  0  0  0
  -27.0688   11.9008  -15.8077 C   0  0  0  0  0  0  0  0  0  0  0  0
  -27.7466   12.0786  -18.1465 C   0  0  0  0  0  0  0  0  0  0  0  0
  -27.9999   10.8825  -18.2430 O   0  0  0  0  0  0  0  0  0  0  0  0
  -27.8097   12.8541  -19.2557 N   0  0  0  0  0  0  0  0  0  0  0  0
  -25.1931   15.7068  -16.4357 N   0  0  0  0  0  0  0  0  0  0  0  0
  -26.9764   12.9185  -19.8200 H   0  0  0  0  0  0  0  0  0  0  0  0
  -28.6502   12.6834  -19.7930 H   0  0  0  0  0  0  0  0  0  0  0  0
  -24.1994   15.7748  -16.2145 H   0  0  0  0  0  0  0  0  0  0  0  0
  -25.6831   16.0914  -15.6277 H   0  0  0  0  0  0  0  0  0  0  0  0
  2  1  1  6  0  0  0
  2  3  1  0  0  0  0
  2  7  1  0  0  0  0
  3  4  1  0  0  0  0
  4  5  1  0  0  0  0
  4 11  1  1  0  0  0
  5  6  1  0  0  0  0
  6  7  1  0  0  0  0
  6  8  1  0  0  0  0
  8  9  2  0  0  0  0
  8 10  1  0  0  0  0
 10 12  1  0  0  0  0
 10 13  1  0  0  0  0
 11 14  1  0  0  0  0
 11 15  1  0  0  0  0
M  END
>  <CHROM.0>
-60.49844528,-42.32100436,-60.08112309,-43.47784204,-175.75331910,-59.15245220
-66.59570312,-58.07598517,-169.26862541

>  <CHROM.1>
52.69586581,91.97899333,-26.47696032,12.84638239,-16.91586876,-0.51434489
0.80707633,2.97847834

>  <Name>
P136260037

>  <RI>
0

>  <Rbt.Current_Directory>
/home/fstefaniak/projects/zuza/docking/adenine/4TZX

>  <Rbt.Executable>
rbdock ($Id: //depot/dev/client3/rdock/2013.1/src/exe/rbdock.cxx#4 $)

>  <Rbt.Library>
libRbt.so (2013.1, Build901 2013/11/27)

>  <Rbt.Parameter_File>
/home/fstefaniak/progs/rDock//data/scripts/dock_solv.prm

>  <Rbt.Receptor>
4tzx.prm

>  <SCORE>
-41.7838

>  <SCORE.INTER>
-22.0076

>  <SCORE.INTER.CONST>
1

>  <SCORE.INTER.POLAR>
-3.05734

>  <SCORE.INTER.ROT>
2

>  <SCORE.INTER.SOLV>
9.27921

>  <SCORE.INTER.VDW>
-12.507

>  <SCORE.INTER.norm>
-2.00069

>  <SCORE.INTRA>
-0.152044

>  <SCORE.INTRA.DIHEDRAL>
0.0491732

>  <SCORE.INTRA.DIHEDRAL.0>
0.492214

>  <SCORE.INTRA.POLAR>
0

>  <SCORE.INTRA.POLAR.0>
0

>  <SCORE.INTRA.REPUL>
0

>  <SCORE.INTRA.REPUL.0>
0

>  <SCORE.INTRA.SOLV>
-0.0232825

>  <SCORE.INTRA.SOLV.lig_0>
-13.7403

>  <SCORE.INTRA.VDW>
-0.164989

>  <SCORE.INTRA.VDW.0>
-0.0272159

>  <SCORE.INTRA.norm>
-0.0138222

>  <SCORE.RESTR>
0.442419

>  <SCORE.RESTR.CAVITY>
0.442419

>  <SCORE.RESTR.norm>
0.0402199

>  <SCORE.SYSTEM>
-20.0666

>  <SCORE.SYSTEM.CONST>
0

>  <SCORE.SYSTEM.DIHEDRAL>
5.56665

>  <SCORE.SYSTEM.POLAR>
-3.04248

>  <SCORE.SYSTEM.SOLV>
0.0737221

>  <SCORE.SYSTEM.VDW>
-5.11622

>  <SCORE.SYSTEM.norm>
-1.82423

>  <SCORE.heavy>
11

>  <SCORE.norm>
-3.79853

$$$$
P136260061
 OpenBabel12072022113D
libRbt.so/2013.1/901 2013/11/27
 14 14  0  0  0  0  0  0  0  0999 V2000
  -27.6551   13.1484  -18.1217 C   0  0  0  0  0  0  0  0  0  0  0  0
  -26.8916   13.3301  -16.8068 C   0  0  1  0  0  0  0  0  0  0  0  0
  -25.5487   14.0553  -17.0238 C   0  0  0  0  0  0  0  0  0  0  0  0
  -25.7206   15.5608  -17.3042 C   0  0  1  0  0  0  0  0  0  0  0  0
  -26.6048   16.2098  -16.2190 C   0  0  0  0  0  0  0  0  0  0  0  0
  -27.8650   15.4813  -16.0863 N   0  0  0  0  0  0  0  0  0  0  0  0
  -27.7431   14.0676  -15.7610 C   0  0  0  0  0  0  0  0  0  0  0  0
  -29.0984   16.0088  -16.4200 C   0  0  0  0  0  0  0  0  0  0  0  0
  -30.1447   15.3704  -16.3974 O   0  0  0  0  0  0  0  0  0  0  0  0
  -29.0269   17.3171  -16.7851 O   0  0  0  0  0  0  0  0  0  0  0  0
  -30.2653   18.0213  -16.6974 C   0  0  0  0  0  0  0  0  0  0  0  0
  -24.4073   16.2092  -17.3876 N   0  0  0  0  0  0  0  0  0  0  0  0
  -23.8548   15.9631  -16.5662 H   0  0  0  0  0  0  0  0  0  0  0  0
  -24.5148   17.2228  -17.3594 H   0  0  0  0  0  0  0  0  0  0  0  0
  2  1  1  6  0  0  0
  2  3  1  0  0  0  0
  2  7  1  0  0  0  0
  3  4  1  0  0  0  0
  4  5  1  0  0  0  0
  4 12  1  1  0  0  0
  5  6  1  0  0  0  0
  6  7  1  0  0  0  0
  6  8  1  0  0  0  0
  8  9  2  0  0  0  0
  8 10  1  0  0  0  0
 10 11  1  0  0  0  0
 12 13  1  0  0  0  0
 12 14  1  0  0  0  0
M  END
>  <CHROM.0>
-56.46887110,167.68368156,-72.01219090,-42.41903906,60.30346249,-60.00911351
-168.97410849,-55.71922164,-169.33355806

>  <CHROM.1>
-51.10208639,-159.75124654,-27.60077708,15.44007977,-16.75768929,0.50645011
-0.11952410,-3.08779008

>  <Name>
P136260061

>  <RI>
0

>  <Rbt.Current_Directory>
/home/fstefaniak/projects/zuza/docking/adenine/4TZX

>  <Rbt.Executable>
rbdock ($Id: //depot/dev/client3/rdock/2013.1/src/exe/rbdock.cxx#4 $)

>  <Rbt.Library>
libRbt.so (2013.1, Build901 2013/11/27)

>  <Rbt.Parameter_File>
/home/fstefaniak/progs/rDock//data/scripts/dock_solv.prm

>  <Rbt.Receptor>
4tzx.prm

>  <SCORE>
-36.6258

>  <SCORE.INTER>
-19.0809

>  <SCORE.INTER.CONST>
1

>  <SCORE.INTER.POLAR>
-1.96237

>  <SCORE.INTER.ROT>
2

>  <SCORE.INTER.SOLV>
12.2536

>  <SCORE.INTER.VDW>
-15.1973

>  <SCORE.INTER.norm>
-1.59008

>  <SCORE.INTRA>
1.30685

>  <SCORE.INTRA.DIHEDRAL>
3.00925

>  <SCORE.INTRA.DIHEDRAL.0>
0.0152541

>  <SCORE.INTRA.POLAR>
0

>  <SCORE.INTRA.POLAR.0>
0

>  <SCORE.INTRA.REPUL>
0

>  <SCORE.INTRA.REPUL.0>
0

>  <SCORE.INTRA.SOLV>
0.00427336

>  <SCORE.INTRA.SOLV.lig_0>
-8.74874

>  <SCORE.INTRA.VDW>
-0.199914

>  <SCORE.INTRA.VDW.0>
2.02935

>  <SCORE.INTRA.norm>
0.108904

>  <SCORE.RESTR>
0

>  <SCORE.RESTR.CAVITY>
0

>  <SCORE.RESTR.norm>
0

>  <SCORE.SYSTEM>
-18.8517

>  <SCORE.SYSTEM.CONST>
0

>  <SCORE.SYSTEM.DIHEDRAL>
6.03264

>  <SCORE.SYSTEM.POLAR>
-3.06495

>  <SCORE.SYSTEM.SOLV>
-0.0546697

>  <SCORE.SYSTEM.VDW>
-4.34399

>  <SCORE.SYSTEM.norm>
-1.57098

>  <SCORE.heavy>
12

>  <SCORE.norm>
-3.05215

$$$$
P136260061
 OpenBabel12072022113D
libRbt.so/2013.1/901 2013/11/27
 14 14  0  0  0  0  0  0  0  0999 V2000
  -27.5958   13.1732  -18.1625 C   0  0  0  0  0  0  0  0  0  0  0  0
  -26.8310   13.3260  -16.8446 C   0  0  1  0  0  0  0  0  0  0  0  0
  -25.4899   14.0590  -17.0465 C   0  0  0  0  0  0  0  0  0  0  0  0
  -25.6653   15.5702  -17.2918 C   0  0  1  0  0  0  0  0  0  0  0  0
  -26.5494   16.1921  -16.1907 C   0  0  0  0  0  0  0  0  0  0  0  0
  -27.8079   15.4580  -16.0733 N   0  0  0  0  0  0  0  0  0  0  0  0
  -27.6827   14.0374  -15.7810 C   0  0  0  0  0  0  0  0  0  0  0  0
  -29.0429   15.9905  -16.3932 C   0  0  0  0  0  0  0  0  0  0  0  0
  -30.0878   15.3494  -16.3841 O   0  0  0  0  0  0  0  0  0  0  0  0
  -28.9746   17.3070  -16.7281 O   0  0  0  0  0  0  0  0  0  0  0  0
  -30.2296   17.8922  -17.0743 C   0  0  0  0  0  0  0  0  0  0  0  0
  -24.3535   16.2232  -17.3618 N   0  0  0  0  0  0  0  0  0  0  0  0
  -23.8030   15.9669  -16.5422 H   0  0  0  0  0  0  0  0  0  0  0  0
  -24.4637   17.2359  -17.3197 H   0  0  0  0  0  0  0  0  0  0  0  0
  2  1  1  6  0  0  0
  2  3  1  0  0  0  0
  2  7  1  0  0  0  0
  3  4  1  0  0  0  0
  4  5  1  0  0  0  0
  4 12  1  1  0  0  0
  5  6  1  0  0  0  0
  6  7  1  0  0  0  0
  6  8  1  0  0  0  0
  8  9  2  0  0  0  0
  8 10  1  0  0  0  0
 10 11  1  0  0  0  0
 12 13  1  0  0  0  0
 12 14  1  0  0  0  0
M  END
>  <CHROM.0>
-61.13586211,-73.07252969,-65.18836199,-43.08604957,-176.08094901,-58.18328862
-66.58242234,-175.02462602,-168.84936949

>  <CHROM.1>
-51.68203387,179.59436413,-27.54585589,15.42294668,-16.78532456,0.48083491
-0.09909521,-3.10529898

>  <Name>
P136260061

>  <RI>
0

>  <Rbt.Current_Directory>
/home/fstefaniak/projects/zuza/docking/adenine/4TZX

>  <Rbt.Executable>
rbdock ($Id: //depot/dev/client3/rdock/2013.1/src/exe/rbdock.cxx#4 $)

>  <Rbt.Library>
libRbt.so (2013.1, Build901 2013/11/27)

>  <Rbt.Parameter_File>
/home/fstefaniak/progs/rDock//data/scripts/dock_solv.prm

>  <Rbt.Receptor>
4tzx.prm

>  <SCORE>
-35.4459

>  <SCORE.INTER>
-14.646

>  <SCORE.INTER.CONST>
1

>  <SCORE.INTER.POLAR>
-1.0948

>  <SCORE.INTER.ROT>
2

>  <SCORE.INTER.SOLV>
12.3105

>  <SCORE.INTER.VDW>
-15.1515

>  <SCORE.INTER.norm>
-1.2205

>  <SCORE.INTRA>
0.242389

>  <SCORE.INTRA.DIHEDRAL>
0.168153

>  <SCORE.INTRA.DIHEDRAL.0>
0.0152541

>  <SCORE.INTRA.POLAR>
0

>  <SCORE.INTRA.POLAR.0>
0

>  <SCORE.INTRA.REPUL>
0

>  <SCORE.INTRA.REPUL.0>
0

>  <SCORE.INTRA.SOLV>
0.00622924

>  <SCORE.INTRA.SOLV.lig_0>
-8.74874

>  <SCORE.INTRA.VDW>
0.155198

>  <SCORE.INTRA.VDW.0>
2.02935

>  <SCORE.INTRA.norm>
0.0201991

>  <SCORE.RESTR>
0

>  <SCORE.RESTR.CAVITY>
0

>  <SCORE.RESTR.norm>
0

>  <SCORE.SYSTEM>
-21.0423

>  <SCORE.SYSTEM.CONST>
0

>  <SCORE.SYSTEM.DIHEDRAL>
5.2705

>  <SCORE.SYSTEM.POLAR>
-3.04918

>  <SCORE.SYSTEM.SOLV>
-0.136481

>  <SCORE.SYSTEM.VDW>
-5.57558

>  <SCORE.SYSTEM.norm>
-1.75352

>  <SCORE.heavy>
12

>  <SCORE.norm>
-2.95382

$$$$
P136260061
 OpenBabel12072022113D
libRbt.so/2013.1/901 2013/11/27
 14 14  0  0  0  0  0  0  0  0999 V2000
  -25.9285   12.3416  -14.8238 C   0  0  0  0  0  0  0  0  0  0  0  0
  -25.4596   12.3715  -16.2812 C   0  0  1  0  0  0  0  0  0  0  0  0
  -26.3047   11.4378  -17.1703 C   0  0  0  0  0  0  0  0  0  0  0  0
  -27.7120   11.9966  -17.4563 C   0  0  1  0  0  0  0  0  0  0  0  0
  -27.6159   13.4401  -17.9927 C   0  0  0  0  0  0  0  0  0  0  0  0
  -26.8194   14.2672  -17.0883 N   0  0  0  0  0  0  0  0  0  0  0  0
  -25.4620   13.8026  -16.8422 C   0  0  0  0  0  0  0  0  0  0  0  0
  -27.3338   15.3173  -16.3509 C   0  0  0  0  0  0  0  0  0  0  0  0
  -26.6900   15.9526  -15.5234 O   0  0  0  0  0  0  0  0  0  0  0  0
  -28.6397   15.5679  -16.6370 O   0  0  0  0  0  0  0  0  0  0  0  0
  -29.2000   16.6655  -15.9169 C   0  0  0  0  0  0  0  0  0  0  0  0
  -28.4195   11.1192  -18.3954 N   0  0  0  0  0  0  0  0  0  0  0  0
  -27.7411   10.5678  -18.9210 H   0  0  0  0  0  0  0  0  0  0  0  0
  -28.9217   11.6771  -19.0854 H   0  0  0  0  0  0  0  0  0  0  0  0
  2  1  1  1  0  0  0
  2  3  1  0  0  0  0
  2  7  1  0  0  0  0
  3  4  1  0  0  0  0
  4  5  1  0  0  0  0
  4 12  1  6  0  0  0
  5  6  1  0  0  0  0
  6  7  1  0  0  0  0
  6  8  1  0  0  0  0
  8  9  2  0  0  0  0
  8 10  1  0  0  0  0
 10 11  1  0  0  0  0
 12 13  1  0  0  0  0
 12 14  1  0  0  0  0
M  END
>  <CHROM.0>
-59.65022135,-176.30703083,-62.82193188,-43.41094161,-175.00046521,-61.76840163
-68.33034348,-174.73328386,-169.59001424

>  <CHROM.1>
-22.01444364,-178.67843047,-27.16732823,13.71569924,-16.70545816,-1.25135976
-0.55794222,0.43635510

>  <Name>
P136260061

>  <RI>
0

>  <Rbt.Current_Directory>
/home/fstefaniak/projects/zuza/docking/adenine/4TZX

>  <Rbt.Executable>
rbdock ($Id: //depot/dev/client3/rdock/2013.1/src/exe/rbdock.cxx#4 $)

>  <Rbt.Library>
libRbt.so (2013.1, Build901 2013/11/27)

>  <Rbt.Parameter_File>
/home/fstefaniak/progs/rDock//data/scripts/dock_solv.prm

>  <Rbt.Receptor>
4tzx.prm

>  <SCORE>
-35.3732

>  <SCORE.INTER>
-16.4539

>  <SCORE.INTER.CONST>
1

>  <SCORE.INTER.POLAR>
-1.95529

>  <SCORE.INTER.ROT>
2

>  <SCORE.INTER.SOLV>
7.68134

>  <SCORE.INTER.VDW>
-11.9454

>  <SCORE.INTER.norm>
-1.37116

>  <SCORE.INTRA>
1.91121

>  <SCORE.INTRA.DIHEDRAL>
1.79149

>  <SCORE.INTRA.DIHEDRAL.0>
0.0152541

>  <SCORE.INTRA.POLAR>
0

>  <SCORE.INTRA.POLAR.0>
0

>  <SCORE.INTRA.REPUL>
0

>  <SCORE.INTRA.REPUL.0>
0

>  <SCORE.INTRA.SOLV>
0.00930105

>  <SCORE.INTRA.SOLV.lig_0>
-8.74874

>  <SCORE.INTRA.VDW>
1.01082

>  <SCORE.INTRA.VDW.0>
2.02935

>  <SCORE.INTRA.norm>
0.159268

>  <SCORE.RESTR>
0.306405

>  <SCORE.RESTR.CAVITY>
0.306405

>  <SCORE.RESTR.norm>
0.0255337

>  <SCORE.SYSTEM>
-21.1369

>  <SCORE.SYSTEM.CONST>
0

>  <SCORE.SYSTEM.DIHEDRAL>
4.50852

>  <SCORE.SYSTEM.POLAR>
-3.03355

>  <SCORE.SYSTEM.SOLV>
-0.161244

>  <SCORE.SYSTEM.VDW>
-5.42851

>  <SCORE.SYSTEM.norm>
-1.7614

>  <SCORE.heavy>
12

>  <SCORE.norm>
-2.94777

$$$$
P136266612
 OpenBabel12072022113D
libRbt.so/2013.1/901 2013/11/27
 16 16  0  0  0  0  0  0  0  0999 V2000
  -25.2683   15.4165  -17.3402 C   0  0  0  0  0  0  0  0  0  0  0  0
  -26.0848   15.1825  -16.0658 C   0  0  2  0  0  0  0  0  0  0  0  0
  -26.6809   13.7600  -15.9919 C   0  0  0  0  0  0  0  0  0  0  0  0
  -28.0119   13.5813  -16.7407 C   0  0  1  0  0  0  0  0  0  0  0  0
  -28.9936   14.6846  -16.2917 C   0  0  0  0  0  0  0  0  0  0  0  0
  -28.3678   15.9994  -16.7153 N   0  3  2  0  0  0  0  0  0  0  0  0
  -28.0775   15.8720  -17.6937 H   0  0  0  0  0  0  0  0  0  0  0  0
  -27.1479   16.2749  -15.8639 C   0  0  0  0  0  0  0  0  0  0  0  0
  -29.3645   17.1942  -16.6226 C   0  0  1  0  0  0  0  0  0  0  0  0
  -30.0518   17.3898  -17.9711 C   0  0  0  0  0  0  0  0  0  0  0  0
  -30.3825   17.0869  -15.4382 C   0  0  0  0  0  0  0  0  0  0  0  0
  -29.9456   16.5019  -14.4104 O   0  0  0  0  0  0  0  0  0  0  0  0
  -31.4438   17.7471  -15.6222 O   0  5  0  0  0  0  0  0  0  0  0  0
  -27.7841   13.6732  -18.1990 N   0  0  0  0  0  0  0  0  0  0  0  0
  -28.5748   13.2508  -18.6932 H   0  0  0  0  0  0  0  0  0  0  0  0
  -26.9802   13.0903  -18.4479 H   0  0  0  0  0  0  0  0  0  0  0  0
  2  1  1  6  0  0  0
  2  3  1  0  0  0  0
  2  8  1  0  0  0  0
  3  4  1  0  0  0  0
  4  5  1  0  0  0  0
  4 14  1  6  0  0  0
  5  6  1  0  0  0  0
  6  7  1  6  0  0  0
  6  8  1  0  0  0  0
  6  9  1  0  0  0  0
  9 10  1  6  0  0  0
  9 11  1  0  0  0  0
 11 12  2  0  0  0  0
 11 13  1  0  0  0  0
 14 15  1  0  0  0  0
 14 16  1  0  0  0  0
M  CHG  2   6   1  13  -1
M  END
>  <CHROM.0>
-55.02891888,-51.48981776,-67.63040067,-43.44678210,-56.30683393,-58.79136315
-62.54473233,-56.53236722,-168.17367355

>  <CHROM.1>
161.01880385,-92.89188653,31.97858812,-28.44479506,15.73223943,-16.42921757
-0.50276168,-0.44259185,1.01552756

>  <Name>
P136266612

>  <RI>
0

>  <Rbt.Current_Directory>
/home/fstefaniak/projects/zuza/docking/adenine/4TZX

>  <Rbt.Executable>
rbdock ($Id: //depot/dev/client3/rdock/2013.1/src/exe/rbdock.cxx#4 $)

>  <Rbt.Library>
libRbt.so (2013.1, Build901 2013/11/27)

>  <Rbt.Parameter_File>
/home/fstefaniak/progs/rDock//data/scripts/dock_solv.prm

>  <Rbt.Receptor>
4tzx.prm

>  <SCORE>
-30.2199

>  <SCORE.INTER>
-12.3183

>  <SCORE.INTER.CONST>
1

>  <SCORE.INTER.POLAR>
-3.12273

>  <SCORE.INTER.ROT>
3

>  <SCORE.INTER.SOLV>
22.3554

>  <SCORE.INTER.VDW>
-10.8549

>  <SCORE.INTER.norm>
-0.947563

>  <SCORE.INTRA>
2.70068

>  <SCORE.INTRA.DIHEDRAL>
2.20903

>  <SCORE.INTRA.DIHEDRAL.0>
1.32829

>  <SCORE.INTRA.POLAR>
-2.0686e-10

>  <SCORE.INTRA.POLAR.0>
-0.272373

>  <SCORE.INTRA.REPUL>
0

>  <SCORE.INTRA.REPUL.0>
0

>  <SCORE.INTRA.SOLV>
0.602815

>  <SCORE.INTRA.SOLV.lig_0>
-40.0629

>  <SCORE.INTRA.VDW>
1.29476

>  <SCORE.INTRA.VDW.0>
0.546885

>  <SCORE.INTRA.norm>
0.207745

>  <SCORE.RESTR>
0

>  <SCORE.RESTR.CAVITY>
0

>  <SCORE.RESTR.norm>
0

>  <SCORE.SYSTEM>
-20.6023

>  <SCORE.SYSTEM.CONST>
0

>  <SCORE.SYSTEM.DIHEDRAL>
4.84337

>  <SCORE.SYSTEM.POLAR>
-3.09358

>  <SCORE.SYSTEM.SOLV>
0.22794

>  <SCORE.SYSTEM.VDW>
-5.11335

>  <SCORE.SYSTEM.norm>
-1.58479

>  <SCORE.heavy>
13

>  <SCORE.norm>
-2.32461

$$$$
P136266612
 OpenBabel12072022113D
libRbt.so/2013.1/901 2013/11/27
 16 16  0  0  0  0  0  0  0  0999 V2000
  -25.3327   15.2936  -17.3407 C   0  0  0  0  0  0  0  0  0  0  0  0
  -26.1561   15.0786  -16.0673 C   0  0  2  0  0  0  0  0  0  0  0  0
  -26.7954   13.6746  -16.0002 C   0  0  0  0  0  0  0  0  0  0  0  0
  -28.1312   13.5403  -16.7497 C   0  0  1  0  0  0  0  0  0  0  0  0
  -29.0787   14.6710  -16.2955 C   0  0  0  0  0  0  0  0  0  0  0  0
  -28.4130   15.9681  -16.7128 N   0  3  2  0  0  0  0  0  0  0  0  0
  -28.1267   15.8365  -17.6918 H   0  0  0  0  0  0  0  0  0  0  0  0
  -27.1854   16.2020  -15.8601 C   0  0  0  0  0  0  0  0  0  0  0  0
  -29.3727   17.1924  -16.6143 C   0  0  1  0  0  0  0  0  0  0  0  0
  -30.0385   17.4275  -17.9673 C   0  0  0  0  0  0  0  0  0  0  0  0
  -30.4066   17.1012  -15.4425 C   0  0  0  0  0  0  0  0  0  0  0  0
  -31.5741   17.4802  -15.7301 O   0  0  0  0  0  0  0  0  0  0  0  0
  -29.9616   16.5061  -14.4207 O   0  5  0  0  0  0  0  0  0  0  0  0
  -27.9006   13.6322  -18.2077 N   0  0  0  0  0  0  0  0  0  0  0  0
  -28.6316   13.1117  -18.7003 H   0  0  0  0  0  0  0  0  0  0  0  0
  -27.0317   13.1427  -18.4389 H   0  0  0  0  0  0  0  0  0  0  0  0
  2  1  1  6  0  0  0
  2  3  1  0  0  0  0
  2  8  1  0  0  0  0
  3  4  1  0  0  0  0
  4  5  1  0  0  0  0
  4 14  1  6  0  0  0
  5  6  1  0  0  0  0
  6  7  1  6  0  0  0
  6  8  1  0  0  0  0
  6  9  1  0  0  0  0
  9 10  1  6  0  0  0
  9 11  1  0  0  0  0
 11 12  2  0  0  0  0
 11 13  1  0  0  0  0
 14 15  1  0  0  0  0
 14 16  1  0  0  0  0
M  CHG  2   6   1  13  -1
M  END
>  <CHROM.0>
-64.34416706,-51.54675857,-64.76760308,-41.68730111,-54.03336726,-174.02010567
-62.14178020,-64.94083258,-168.35193920

>  <CHROM.1>
152.45100060,-93.69616233,-138.46296454,-28.50783345,15.67443242,-16.44059311
-0.51930391,-0.41768319,0.95857026

>  <Name>
P136266612

>  <RI>
0

>  <Rbt.Current_Directory>
/home/fstefaniak/projects/zuza/docking/adenine/4TZX

>  <Rbt.Executable>
rbdock ($Id: //depot/dev/client3/rdock/2013.1/src/exe/rbdock.cxx#4 $)

>  <Rbt.Library>
libRbt.so (2013.1, Build901 2013/11/27)

>  <Rbt.Parameter_File>
/home/fstefaniak/progs/rDock//data/scripts/dock_solv.prm

>  <Rbt.Receptor>
4tzx.prm

>  <SCORE>
-30.0277

>  <SCORE.INTER>
-13.3504

>  <SCORE.INTER.CONST>
1

>  <SCORE.INTER.POLAR>
-3.36701

>  <SCORE.INTER.ROT>
3

>  <SCORE.INTER.SOLV>
22.395

>  <SCORE.INTER.VDW>
-10.7419

>  <SCORE.INTER.norm>
-1.02695

>  <SCORE.INTRA>
3.69725

>  <SCORE.INTRA.DIHEDRAL>
2.95899

>  <SCORE.INTRA.DIHEDRAL.0>
1.32829

>  <SCORE.INTRA.POLAR>
-1.82964e-10

>  <SCORE.INTRA.POLAR.0>
-0.272373

>  <SCORE.INTRA.REPUL>
0

>  <SCORE.INTRA.REPUL.0>
0

>  <SCORE.INTRA.SOLV>
0.768742

>  <SCORE.INTRA.SOLV.lig_0>
-40.0629

>  <SCORE.INTRA.VDW>
1.83338

>  <SCORE.INTRA.VDW.0>
0.546885

>  <SCORE.INTRA.norm>
0.284404

>  <SCORE.RESTR>
0

>  <SCORE.RESTR.CAVITY>
0

>  <SCORE.RESTR.norm>
0

>  <SCORE.SYSTEM>
-20.3745

>  <SCORE.SYSTEM.CONST>
0

>  <SCORE.SYSTEM.DIHEDRAL>
5.19167

>  <SCORE.SYSTEM.POLAR>
-3.05932

>  <SCORE.SYSTEM.SOLV>
0.0858709

>  <SCORE.SYSTEM.VDW>
-5.14448

>  <SCORE.SYSTEM.norm>
-1.56727

>  <SCORE.heavy>
13

>  <SCORE.norm>
-2.30982

$$$$
P136266612
 OpenBabel12072022113D
libRbt.so/2013.1/901 2013/11/27
 16 16  0  0  0  0  0  0  0  0999 V2000
  -25.2691   15.4195  -17.3319 C   0  0  0  0  0  0  0  0  0  0  0  0
  -26.1010   15.1642  -16.0716 C   0  0  2  0  0  0  0  0  0  0  0  0
  -26.6931   13.7388  -16.0262 C   0  0  0  0  0  0  0  0  0  0  0  0
  -28.0139   13.5668  -16.7945 C   0  0  1  0  0  0  0  0  0  0  0  0
  -29.0050   14.6602  -16.3422 C   0  0  0  0  0  0  0  0  0  0  0  0
  -28.3783   15.9832  -16.7384 N   0  3  2  0  0  0  0  0  0  0  0  0
  -28.0752   15.8710  -17.7148 H   0  0  0  0  0  0  0  0  0  0  0  0
  -27.1704   16.2501  -15.8674 C   0  0  0  0  0  0  0  0  0  0  0  0
  -29.3802   17.1732  -16.6411 C   0  0  1  0  0  0  0  0  0  0  0  0
  -30.0477   17.3891  -17.9964 C   0  0  0  0  0  0  0  0  0  0  0  0
  -30.4156   17.0431  -15.4742 C   0  0  0  0  0  0  0  0  0  0  0  0
  -29.9766   16.4888  -14.4304 O   0  0  0  0  0  0  0  0  0  0  0  0
  -31.4974   17.6602  -15.6869 O   0  5  0  0  0  0  0  0  0  0  0  0
  -27.7677   13.6808  -18.2484 N   0  0  0  0  0  0  0  0  0  0  0  0
  -28.5175   13.2052  -18.7577 H   0  0  0  0  0  0  0  0  0  0  0  0
  -26.9200   13.1578  -18.4846 H   0  0  0  0  0  0  0  0  0  0  0  0
  2  1  1  6  0  0  0
  2  3  1  0  0  0  0
  2  8  1  0  0  0  0
  3  4  1  0  0  0  0
  4  5  1  0  0  0  0
  4 14  1  6  0  0  0
  5  6  1  0  0  0  0
  6  7  1  6  0  0  0
  6  8  1  0  0  0  0
  6  9  1  0  0  0  0
  9 10  1  6  0  0  0
  9 11  1  0  0  0  0
 11 12  2  0  0  0  0
 11 13  1  0  0  0  0
 14 15  1  0  0  0  0
 14 16  1  0  0  0  0
M  CHG  2   6   1  13  -1
M  END
>  <CHROM.0>
-54.41072844,-48.54580440,-71.37497331,-43.14850826,-178.47282217,-61.14325686
-170.28769898,-179.63777570,-168.84443094

>  <CHROM.1>
157.05827079,-93.06783061,34.61773050,-28.45869834,15.71140112,-16.45841267
-0.48947421,-0.44121343,1.02963276

>  <Name>
P136266612

>  <RI>
0

>  <Rbt.Current_Directory>
/home/fstefaniak/projects/zuza/docking/adenine/4TZX

>  <Rbt.Executable>
rbdock ($Id: //depot/dev/client3/rdock/2013.1/src/exe/rbdock.cxx#4 $)

>  <Rbt.Library>
libRbt.so (2013.1, Build901 2013/11/27)

>  <Rbt.Parameter_File>
/home/fstefaniak/progs/rDock//data/scripts/dock_solv.prm

>  <Rbt.Receptor>
4tzx.prm

>  <SCORE>
-29.9093

>  <SCORE.INTER>
-12.6496

>  <SCORE.INTER.CONST>
1

>  <SCORE.INTER.POLAR>
-3.17541

>  <SCORE.INTER.ROT>
3

>  <SCORE.INTER.SOLV>
22.5439

>  <SCORE.INTER.VDW>
-10.963

>  <SCORE.INTER.norm>
-0.973045

>  <SCORE.INTRA>
2.81092

>  <SCORE.INTRA.DIHEDRAL>
2.41911

>  <SCORE.INTRA.DIHEDRAL.0>
1.32829

>  <SCORE.INTRA.POLAR>
-3.26262e-10

>  <SCORE.INTRA.POLAR.0>
-0.272373

>  <SCORE.INTRA.REPUL>
0

>  <SCORE.INTRA.REPUL.0>
0

>  <SCORE.INTRA.SOLV>
0.555932

>  <SCORE.INTRA.SOLV.lig_0>
-40.0629

>  <SCORE.INTRA.VDW>
1.3234

>  <SCORE.INTRA.VDW.0>
0.546885

>  <SCORE.INTRA.norm>
0.216225

>  <SCORE.RESTR>
0

>  <SCORE.RESTR.CAVITY>
0

>  <SCORE.RESTR.norm>
0

>  <SCORE.SYSTEM>
-20.0706

>  <SCORE.SYSTEM.CONST>
0

>  <SCORE.SYSTEM.DIHEDRAL>
5.71767

>  <SCORE.SYSTEM.POLAR>
-3.07599

>  <SCORE.SYSTEM.SOLV>
-0.119627

>  <SCORE.SYSTEM.VDW>
-4.99313

>  <SCORE.SYSTEM.norm>
-1.54389

>  <SCORE.heavy>
13

>  <SCORE.norm>
-2.30071

$$$$
P136450499
 OpenBabel12072022113D
libRbt.so/2013.1/901 2013/11/27
 11 11  0  0  0  0  0  0  0  0999 V2000
  -27.5806   16.2477  -16.0736 C   0  0  0  0  0  0  0  0  0  0  0  0
  -28.7891   17.0003  -15.5325 C   0  0  0  0  0  0  0  0  0  0  0  0
  -30.1136   16.6399  -16.2406 C   0  0  1  0  0  0  0  0  0  0  0  0
  -31.2595   17.5562  -15.7530 C   0  0  0  0  0  0  0  0  0  0  0  0
  -31.0873   18.9132  -16.1890 O   0  0  0  0  0  0  0  0  0  0  0  0
  -31.0221   19.0072  -17.6284 C   0  0  1  0  0  0  0  0  0  0  0  0
  -29.9532   18.0592  -18.2146 C   0  0  0  0  0  0  0  0  0  0  0  0
  -30.0255   16.6757  -17.7135 N   0  0  0  0  0  0  0  0  0  0  0  0
  -32.3775   18.7946  -18.2828 C   0  0  0  0  0  0  0  0  0  0  0  0
  -33.5018   18.6182  -18.8256 N   0  0  0  0  0  0  0  0  0  0  0  0
  -29.2214   16.1415  -18.0399 H   0  0  0  0  0  0  0  0  0  0  0  0
  1  2  1  0  0  0  0
  3  2  1  1  0  0  0
  3  4  1  0  0  0  0
  3  8  1  0  0  0  0
  4  5  1  0  0  0  0
  5  6  1  0  0  0  0
  6  7  1  0  0  0  0
  6  9  1  6  0  0  0
  7  8  1  0  0  0  0
  8 11  1  0  0  0  0
  9 10  3  0  0  0  0
M  END
>  <CHROM.0>
-60.55615962,-58.12087149,-67.81287123,-43.65947456,-178.37442257,-65.67006224
-66.99456779,-58.04635372,-168.63910596

>  <CHROM.1>
-173.45596566,-30.52081760,17.72919065,-17.01693546,-0.38966020,0.53911386
-1.68270535

>  <Name>
P136450499

>  <RI>
0

>  <Rbt.Current_Directory>
/home/fstefaniak/projects/zuza/docking/adenine/4TZX

>  <Rbt.Executable>
rbdock ($Id: //depot/dev/client3/rdock/2013.1/src/exe/rbdock.cxx#4 $)

>  <Rbt.Library>
libRbt.so (2013.1, Build901 2013/11/27)

>  <Rbt.Parameter_File>
/home/fstefaniak/progs/rDock//data/scripts/dock_solv.prm

>  <Rbt.Receptor>
4tzx.prm

>  <SCORE>
-43.3932

>  <SCORE.INTER>
-22.609

>  <SCORE.INTER.CONST>
1

>  <SCORE.INTER.POLAR>
-2.46312

>  <SCORE.INTER.ROT>
1

>  <SCORE.INTER.SOLV>
10.8515

>  <SCORE.INTER.VDW>
-14.7461

>  <SCORE.INTER.norm>
-2.2609

>  <SCORE.INTRA>
0.502622

>  <SCORE.INTRA.DIHEDRAL>
0.0726009

>  <SCORE.INTRA.DIHEDRAL.0>
0.136091

>  <SCORE.INTRA.POLAR>
0

>  <SCORE.INTRA.POLAR.0>
0

>  <SCORE.INTRA.REPUL>
0

>  <SCORE.INTRA.REPUL.0>
0

>  <SCORE.INTRA.SOLV>
0.0246841

>  <SCORE.INTRA.SOLV.lig_0>
-9.38448

>  <SCORE.INTRA.VDW>
0.45398

>  <SCORE.INTRA.VDW.0>
-0.0395108

>  <SCORE.INTRA.norm>
0.0502622

>  <SCORE.RESTR>
0

>  <SCORE.RESTR.CAVITY>
0

>  <SCORE.RESTR.norm>
0

>  <SCORE.SYSTEM>
-21.2869

>  <SCORE.SYSTEM.CONST>
0

>  <SCORE.SYSTEM.DIHEDRAL>
4.58565

>  <SCORE.SYSTEM.POLAR>
-3.03463

>  <SCORE.SYSTEM.SOLV>
-0.00976567

>  <SCORE.SYSTEM.VDW>
-5.60113

>  <SCORE.SYSTEM.norm>
-2.12869

>  <SCORE.heavy>
10

>  <SCORE.norm>
-4.33932

$$$$
P136450499
 OpenBabel12072022113D
libRbt.so/2013.1/901 2013/11/27
 11 11  0  0  0  0  0  0  0  0999 V2000
  -27.6061   16.2648  -16.0553 C   0  0  0  0  0  0  0  0  0  0  0  0
  -28.8383   16.9345  -15.4612 C   0  0  0  0  0  0  0  0  0  0  0  0
  -30.1468   16.6076  -16.2138 C   0  0  1  0  0  0  0  0  0  0  0  0
  -31.3005   17.5102  -15.7190 C   0  0  0  0  0  0  0  0  0  0  0  0
  -31.1126   18.8820  -16.0989 O   0  0  0  0  0  0  0  0  0  0  0  0
  -31.0126   19.0302  -17.5317 C   0  0  1  0  0  0  0  0  0  0  0  0
  -29.9337   18.1000  -18.1280 C   0  0  0  0  0  0  0  0  0  0  0  0
  -30.0234   16.6989  -17.6818 N   0  0  0  0  0  0  0  0  0  0  0  0
  -32.3528   18.8492  -18.2257 C   0  0  0  0  0  0  0  0  0  0  0  0
  -33.4645   18.6989  -18.8014 N   0  0  0  0  0  0  0  0  0  0  0  0
  -29.2138   16.1736  -18.0090 H   0  0  0  0  0  0  0  0  0  0  0  0
  1  2  1  0  0  0  0
  3  2  1  1  0  0  0
  3  4  1  0  0  0  0
  3  8  1  0  0  0  0
  4  5  1  0  0  0  0
  5  6  1  0  0  0  0
  6  7  1  0  0  0  0
  6  9  1  6  0  0  0
  7  8  1  0  0  0  0
  8 11  1  0  0  0  0
  9 10  3  0  0  0  0
M  END
>  <CHROM.0>
-60.22708630,-56.93515023,-65.91098193,-43.38200426,-175.59013133,-62.31804817
-68.12027921,-59.04925256,-168.78116556

>  <CHROM.1>
-169.86031144,-30.52959793,17.73477052,-16.96330201,-0.41877887,0.53437534
-1.62065770

>  <Name>
P136450499

>  <RI>
0

>  <Rbt.Current_Directory>
/home/fstefaniak/projects/zuza/docking/adenine/4TZX

>  <Rbt.Executable>
rbdock ($Id: //depot/dev/client3/rdock/2013.1/src/exe/rbdock.cxx#4 $)

>  <Rbt.Library>
libRbt.so (2013.1, Build901 2013/11/27)

>  <Rbt.Parameter_File>
/home/fstefaniak/progs/rDock//data/scripts/dock_solv.prm

>  <Rbt.Receptor>
4tzx.prm

>  <SCORE>
-43.3086

>  <SCORE.INTER>
-22.8542

>  <SCORE.INTER.CONST>
1

>  <SCORE.INTER.POLAR>
-2.60299

>  <SCORE.INTER.ROT>
1

>  <SCORE.INTER.SOLV>
10.8452

>  <SCORE.INTER.VDW>
-14.4413

>  <SCORE.INTER.norm>
-2.28542

>  <SCORE.INTRA>
0.814279

>  <SCORE.INTRA.DIHEDRAL>
0.297622

>  <SCORE.INTRA.DIHEDRAL.0>
0.136091

>  <SCORE.INTRA.POLAR>
0

>  <SCORE.INTRA.POLAR.0>
0

>  <SCORE.INTRA.REPUL>
0

>  <SCORE.INTRA.REPUL.0>
0

>  <SCORE.INTRA.SOLV>
0.0326596

>  <SCORE.INTRA.SOLV.lig_0>
-9.38448

>  <SCORE.INTRA.VDW>
0.649138

>  <SCORE.INTRA.VDW.0>
-0.0395108

>  <SCORE.INTRA.norm>
0.0814279

>  <SCORE.RESTR>
0

>  <SCORE.RESTR.CAVITY>
0

>  <SCORE.RESTR.norm>
0

>  <SCORE.SYSTEM>
-21.2686

>  <SCORE.SYSTEM.CONST>
0

>  <SCORE.SYSTEM.DIHEDRAL>
4.53813

>  <SCORE.SYSTEM.POLAR>
-3.04491

>  <SCORE.SYSTEM.SOLV>
-0.00235781

>  <SCORE.SYSTEM.VDW>
-5.54133

>  <SCORE.SYSTEM.norm>
-2.12686

>  <SCORE.heavy>
10

>  <SCORE.norm>
-4.33086

$$$$
P136450499
 OpenBabel12072022113D
libRbt.so/2013.1/901 2013/11/27
 11 11  0  0  0  0  0  0  0  0999 V2000
  -27.6236   16.1640  -16.0819 C   0  0  0  0  0  0  0  0  0  0  0  0
  -28.8345   16.8787  -15.4964 C   0  0  0  0  0  0  0  0  0  0  0  0
  -30.1553   16.5695  -16.2347 C   0  0  1  0  0  0  0  0  0  0  0  0
  -31.2920   17.4857  -15.7254 C   0  0  0  0  0  0  0  0  0  0  0  0
  -31.0911   18.8556  -16.1051 O   0  0  0  0  0  0  0  0  0  0  0  0
  -31.0054   19.0053  -17.5387 C   0  0  1  0  0  0  0  0  0  0  0  0
  -29.9450   18.0627  -18.1487 C   0  0  0  0  0  0  0  0  0  0  0  0
  -30.0473   16.6620  -17.7038 N   0  0  0  0  0  0  0  0  0  0  0  0
  -32.3555   18.8423  -18.2178 C   0  0  0  0  0  0  0  0  0  0  0  0
  -33.4754   18.7071  -18.7812 N   0  0  0  0  0  0  0  0  0  0  0  0
  -29.2481   16.1272  -18.0411 H   0  0  0  0  0  0  0  0  0  0  0  0
  1  2  1  0  0  0  0
  3  2  1  1  0  0  0
  3  4  1  0  0  0  0
  3  8  1  0  0  0  0
  4  5  1  0  0  0  0
  5  6  1  0  0  0  0
  6  7  1  0  0  0  0
  6  9  1  6  0  0  0
  7  8  1  0  0  0  0
  8 11  1  0  0  0  0
  9 10  3  0  0  0  0
M  END
>  <CHROM.0>
-60.04168287,-57.53184597,-69.81786070,-43.19111012,-178.21609404,-62.67736699
-67.18444984,-57.09506334,-168.87645717

>  <CHROM.1>
-171.46880698,-30.53298948,17.69953422,-16.97540543,-0.40389270,0.55128638
-1.63066243

>  <Name>
P136450499

>  <RI>
0

>  <Rbt.Current_Directory>
/home/fstefaniak/projects/zuza/docking/adenine/4TZX

>  <Rbt.Executable>
rbdock ($Id: //depot/dev/client3/rdock/2013.1/src/exe/rbdock.cxx#4 $)

>  <Rbt.Library>
libRbt.so (2013.1, Build901 2013/11/27)

>  <Rbt.Parameter_File>
/home/fstefaniak/progs/rDock//data/scripts/dock_solv.prm

>  <Rbt.Receptor>
4tzx.prm

>  <SCORE>
-43.3073

>  <SCORE.INTER>
-22.7206

>  <SCORE.INTER.CONST>
1

>  <SCORE.INTER.POLAR>
-2.48908

>  <SCORE.INTER.ROT>
1

>  <SCORE.INTER.SOLV>
10.8613

>  <SCORE.INTER.VDW>
-14.7372

>  <SCORE.INTER.norm>
-2.27206

>  <SCORE.INTRA>
0.666481

>  <SCORE.INTRA.DIHEDRAL>
0.185461

>  <SCORE.INTRA.DIHEDRAL.0>
0.136091

>  <SCORE.INTRA.POLAR>
0

>  <SCORE.INTRA.POLAR.0>
0

>  <SCORE.INTRA.REPUL>
0

>  <SCORE.INTRA.REPUL.0>
0

>  <SCORE.INTRA.SOLV>
0.029102

>  <SCORE.INTRA.SOLV.lig_0>
-9.38448

>  <SCORE.INTRA.VDW>
0.5592

>  <SCORE.INTRA.VDW.0>
-0.0395108

>  <SCORE.INTRA.norm>
0.0666481

>  <SCORE.RESTR>
0

>  <SCORE.RESTR.CAVITY>
0

>  <SCORE.RESTR.norm>
0

>  <SCORE.SYSTEM>
-21.2532

>  <SCORE.SYSTEM.CONST>
0

>  <SCORE.SYSTEM.DIHEDRAL>
4.71746

>  <SCORE.SYSTEM.POLAR>
-3.04266

>  <SCORE.SYSTEM.SOLV>
-0.00366305

>  <SCORE.SYSTEM.VDW>
-5.59787

>  <SCORE.SYSTEM.norm>
-2.12532

>  <SCORE.heavy>
10

>  <SCORE.norm>
-4.33073

$$$$
P136450765
 OpenBabel12072022113D
libRbt.so/2013.1/901 2013/11/27
 11 11  0  0  0  0  0  0  0  0999 V2000
  -27.6524   12.3589  -16.3816 C   0  0  0  0  0  0  0  0  0  0  0  0
  -26.7381   11.8625  -15.2520 C   0  0  0  0  0  0  0  0  0  0  0  0
  -25.6763   10.8549  -15.7669 C   0  0  0  0  0  0  0  0  0  0  0  0
  -24.6345   11.4774  -16.6003 N   0  0  0  0  0  0  0  0  0  0  0  0
  -24.0154   12.5683  -15.8235 C   0  0  0  0  0  0  0  0  0  0  0  0
  -25.0044   13.5925  -15.2241 C   0  0  2  0  0  0  0  0  0  0  0  0
  -26.1238   12.9690  -14.5597 O   0  0  0  0  0  0  0  0  0  0  0  0
  -25.4140   14.6073  -16.2151 C   0  0  0  0  0  0  0  0  0  0  0  0
  -25.7170   15.4028  -17.0057 N   0  0  0  0  0  0  0  0  0  0  0  0
  -27.6164   11.1641  -14.2027 C   0  0  0  0  0  0  0  0  0  0  0  0
  -25.0602   11.8604  -17.4460 H   0  0  0  0  0  0  0  0  0  0  0  0
  1  2  1  0  0  0  0
  2  3  1  0  0  0  0
  2  7  1  0  0  0  0
  2 10  1  0  0  0  0
  3  4  1  0  0  0  0
  4  5  1  0  0  0  0
  4 11  1  0  0  0  0
  5  6  1  0  0  0  0
  6  7  1  0  0  0  0
  6  8  1  6  0  0  0
  8  9  3  0  0  0  0
M  END
>  <CHROM.0>
-60.32600925,56.49202865,-72.83545778,48.71354439,-57.85388850,-62.24769165
-171.69812494,59.68670625,-168.91789923

>  <CHROM.1>
-25.88283954,12.64799466,-15.69596153,2.04663154,-0.31401626,2.89531352

>  <Name>
P136450765

>  <RI>
0

>  <Rbt.Current_Directory>
/home/fstefaniak/projects/zuza/docking/adenine/4TZX

>  <Rbt.Executable>
rbdock ($Id: //depot/dev/client3/rdock/2013.1/src/exe/rbdock.cxx#4 $)

>  <Rbt.Library>
libRbt.so (2013.1, Build901 2013/11/27)

>  <Rbt.Parameter_File>
/home/fstefaniak/progs/rDock//data/scripts/dock_solv.prm

>  <Rbt.Receptor>
4tzx.prm

>  <SCORE>
-33.7798

>  <SCORE.INTER>
-18.4862

>  <SCORE.INTER.CONST>
1

>  <SCORE.INTER.POLAR>
-2.67529

>  <SCORE.INTER.ROT>
0

>  <SCORE.INTER.SOLV>
4.81756

>  <SCORE.INTER.VDW>
-8.61238

>  <SCORE.INTER.norm>
-1.84862

>  <SCORE.INTRA>
0

>  <SCORE.INTRA.DIHEDRAL>
0

>  <SCORE.INTRA.DIHEDRAL.0>
0

>  <SCORE.INTRA.POLAR>
0

>  <SCORE.INTRA.POLAR.0>
0

>  <SCORE.INTRA.REPUL>
0

>  <SCORE.INTRA.REPUL.0>
0

>  <SCORE.INTRA.SOLV>
0

>  <SCORE.INTRA.SOLV.lig_0>
-8.48235

>  <SCORE.INTRA.VDW>
0

>  <SCORE.INTRA.VDW.0>
0

>  <SCORE.INTRA.norm>
0

>  <SCORE.RESTR>
0.563466

>  <SCORE.RESTR.CAVITY>
0.563466

>  <SCORE.RESTR.norm>
0.0563466

>  <SCORE.SYSTEM>
-15.857

>  <SCORE.SYSTEM.CONST>
0

>  <SCORE.SYSTEM.DIHEDRAL>
4.39614

>  <SCORE.SYSTEM.POLAR>
-2.46223

>  <SCORE.SYSTEM.SOLV>
0.00757816

>  <SCORE.SYSTEM.VDW>
-3.83182

>  <SCORE.SYSTEM.norm>
-1.5857

>  <SCORE.heavy>
10

>  <SCORE.norm>
-3.37798

$$$$
P136450765
 OpenBabel12072022113D
libRbt.so/2013.1/901 2013/11/27
 11 11  0  0  0  0  0  0  0  0999 V2000
  -29.1874   17.6281  -13.9871 C   0  0  0  0  0  0  0  0  0  0  0  0
  -30.4924   17.4424  -14.7750 C   0  0  0  0  0  0  0  0  0  0  0  0
  -30.5829   18.4126  -15.9826 C   0  0  0  0  0  0  0  0  0  0  0  0
  -29.6496   18.0799  -17.0716 N   0  0  0  0  0  0  0  0  0  0  0  0
  -29.8967   16.6833  -17.4781 C   0  0  0  0  0  0  0  0  0  0  0  0
  -29.8799   15.6509  -16.3290 C   0  0  2  0  0  0  0  0  0  0  0  0
  -30.6570   16.0698  -15.1870 O   0  0  0  0  0  0  0  0  0  0  0  0
  -28.5057   15.2447  -15.9740 C   0  0  0  0  0  0  0  0  0  0  0  0
  -27.4177   14.9296  -15.7153 N   0  0  0  0  0  0  0  0  0  0  0  0
  -31.6654   17.7243  -13.8237 C   0  0  0  0  0  0  0  0  0  0  0  0
  -28.6895   18.1723  -16.7360 H   0  0  0  0  0  0  0  0  0  0  0  0
  1  2  1  0  0  0  0
  2  3  1  0  0  0  0
  2  7  1  0  0  0  0
  2 10  1  0  0  0  0
  3  4  1  0  0  0  0
  4  5  1  0  0  0  0
  4 11  1  0  0  0  0
  5  6  1  0  0  0  0
  6  7  1  0  0  0  0
  6  8  1  1  0  0  0
  8  9  3  0  0  0  0
M  END
>  <CHROM.0>
-61.28796264,-64.10567631,-65.97029371,-43.48943124,-57.61920838,-61.80007550
-68.07076749,-58.71908035,-168.96825608

>  <CHROM.1>
-29.81498543,16.82021504,-15.61135963,-2.89162537,0.83222768,-1.33747746

>  <Name>
P136450765

>  <RI>
0

>  <Rbt.Current_Directory>
/home/fstefaniak/projects/zuza/docking/adenine/4TZX

>  <Rbt.Executable>
rbdock ($Id: //depot/dev/client3/rdock/2013.1/src/exe/rbdock.cxx#4 $)

>  <Rbt.Library>
libRbt.so (2013.1, Build901 2013/11/27)

>  <Rbt.Parameter_File>
/home/fstefaniak/progs/rDock//data/scripts/dock_solv.prm

>  <Rbt.Receptor>
4tzx.prm

>  <SCORE>
-29.7211

>  <SCORE.INTER>
-8.49961

>  <SCORE.INTER.CONST>
1

>  <SCORE.INTER.POLAR>
-1.04878

>  <SCORE.INTER.ROT>
0

>  <SCORE.INTER.SOLV>
9.81119

>  <SCORE.INTER.VDW>
-9.04087

>  <SCORE.INTER.norm>
-0.849961

>  <SCORE.INTRA>
0

>  <SCORE.INTRA.DIHEDRAL>
0

>  <SCORE.INTRA.DIHEDRAL.0>
0

>  <SCORE.INTRA.POLAR>
0

>  <SCORE.INTRA.POLAR.0>
0

>  <SCORE.INTRA.REPUL>
0

>  <SCORE.INTRA.REPUL.0>
0

>  <SCORE.INTRA.SOLV>
0

>  <SCORE.INTRA.SOLV.lig_0>
-8.48235

>  <SCORE.INTRA.VDW>
0

>  <SCORE.INTRA.VDW.0>
0

>  <SCORE.INTRA.norm>
0

>  <SCORE.RESTR>
0

>  <SCORE.RESTR.CAVITY>
0

>  <SCORE.RESTR.norm>
0

>  <SCORE.SYSTEM>
-21.2215

>  <SCORE.SYSTEM.CONST>
0

>  <SCORE.SYSTEM.DIHEDRAL>
4.47959

>  <SCORE.SYSTEM.POLAR>
-3.04282

>  <SCORE.SYSTEM.SOLV>
0.179052

>  <SCORE.SYSTEM.VDW>
-5.55778

>  <SCORE.SYSTEM.norm>
-2.12215

>  <SCORE.heavy>
10

>  <SCORE.norm>
-2.97211

$$$$
P136450765
 OpenBabel12072022113D
libRbt.so/2013.1/901 2013/11/27
 11 11  0  0  0  0  0  0  0  0999 V2000
  -29.1905   17.6472  -13.9894 C   0  0  0  0  0  0  0  0  0  0  0  0
  -30.4955   17.4472  -14.7740 C   0  0  0  0  0  0  0  0  0  0  0  0
  -30.6052   18.4245  -15.9742 C   0  0  0  0  0  0  0  0  0  0  0  0
  -29.6710   18.1141  -17.0689 N   0  0  0  0  0  0  0  0  0  0  0  0
  -29.8981   16.7167  -17.4846 C   0  0  0  0  0  0  0  0  0  0  0  0
  -29.8613   15.6766  -16.3431 C   0  0  2  0  0  0  0  0  0  0  0  0
  -30.6405   16.0752  -15.1953 O   0  0  0  0  0  0  0  0  0  0  0  0
  -28.4796   15.2890  -15.9959 C   0  0  0  0  0  0  0  0  0  0  0  0
  -27.3860   14.9888  -15.7435 N   0  0  0  0  0  0  0  0  0  0  0  0
  -31.6691   17.7042  -13.8165 C   0  0  0  0  0  0  0  0  0  0  0  0
  -28.7112   18.2188  -16.7361 H   0  0  0  0  0  0  0  0  0  0  0  0
  1  2  1  0  0  0  0
  2  3  1  0  0  0  0
  2  7  1  0  0  0  0
  2 10  1  0  0  0  0
  3  4  1  0  0  0  0
  4  5  1  0  0  0  0
  4 11  1  0  0  0  0
  5  6  1  0  0  0  0
  6  7  1  0  0  0  0
  6  8  1  1  0  0  0
  8  9  3  0  0  0  0
M  END
>  <CHROM.0>
-61.57921568,-61.23843127,-69.07018104,-43.55502006,-57.27662713,-62.22430266
-64.96316470,-59.38935365,-169.37133926

>  <CHROM.1>
-29.81163183,16.84152391,-15.61725825,-2.88120377,0.81812717,-1.33791981

>  <Name>
P136450765

>  <RI>
0

>  <Rbt.Current_Directory>
/home/fstefaniak/projects/zuza/docking/adenine/4TZX

>  <Rbt.Executable>
rbdock ($Id: //depot/dev/client3/rdock/2013.1/src/exe/rbdock.cxx#4 $)

>  <Rbt.Library>
libRbt.so (2013.1, Build901 2013/11/27)

>  <Rbt.Parameter_File>
/home/fstefaniak/progs/rDock//data/scripts/dock_solv.prm

>  <Rbt.Receptor>
4tzx.prm

>  <SCORE>
-29.6129

>  <SCORE.INTER>
-8.4615

>  <SCORE.INTER.CONST>
1

>  <SCORE.INTER.POLAR>
-1.03654

>  <SCORE.INTER.ROT>
0

>  <SCORE.INTER.SOLV>
9.78588

>  <SCORE.INTER.VDW>
-9.04781

>  <SCORE.INTER.norm>
-0.84615

>  <SCORE.INTRA>
0

>  <SCORE.INTRA.DIHEDRAL>
0

>  <SCORE.INTRA.DIHEDRAL.0>
0

>  <SCORE.INTRA.POLAR>
0

>  <SCORE.INTRA.POLAR.0>
0

>  <SCORE.INTRA.REPUL>
0

>  <SCORE.INTRA.REPUL.0>
0

>  <SCORE.INTRA.SOLV>
0

>  <SCORE.INTRA.SOLV.lig_0>
-8.48235

>  <SCORE.INTRA.VDW>
0

>  <SCORE.INTRA.VDW.0>
0

>  <SCORE.INTRA.norm>
0

>  <SCORE.RESTR>
0

>  <SCORE.RESTR.CAVITY>
0

>  <SCORE.RESTR.norm>
0

>  <SCORE.SYSTEM>
-21.1514

>  <SCORE.SYSTEM.CONST>
0

>  <SCORE.SYSTEM.DIHEDRAL>
4.39943

>  <SCORE.SYSTEM.POLAR>
-3.02206

>  <SCORE.SYSTEM.SOLV>
0.182395

>  <SCORE.SYSTEM.VDW>
-5.55464

>  <SCORE.SYSTEM.norm>
-2.11514

>  <SCORE.heavy>
10

>  <SCORE.norm>
-2.96129

$$$$
P136516744
 OpenBabel12072022113D
libRbt.so/2013.1/901 2013/11/27
 14 14  0  0  0  0  0  0  0  0999 V2000
  -28.7862   15.5436  -15.6069 C   0  0  0  0  0  0  0  0  0  0  0  0
  -29.2138   16.9991  -15.4159 C   0  0  1  0  0  0  0  0  0  0  0  0
  -29.8511   17.5653  -16.6893 C   0  0  0  0  0  0  0  0  0  0  0  0
  -30.9558   18.4426  -16.1525 C   0  0  0  0  0  0  0  0  0  0  0  0
  -31.4138   17.6580  -14.9458 C   0  0  0  0  0  0  0  0  0  0  0  0
  -30.2424   17.0421  -14.3942 O   0  0  0  0  0  0  0  0  0  0  0  0
  -28.0293   17.8737  -14.9497 C   0  0  0  0  0  0  0  0  0  0  0  0
  -27.9311   17.9385  -13.5014 N   0  0  0  0  0  0  0  0  0  0  0  0
  -27.1011   18.8362  -12.9039 C   0  0  0  0  0  0  0  0  0  0  0  0
  -25.9546   19.0857  -13.2422 O   0  0  0  0  0  0  0  0  0  0  0  0
  -27.6849   19.4434  -11.8406 N   0  0  0  0  0  0  0  0  0  0  0  0
  -28.7930   17.7498  -13.0061 H   0  0  0  0  0  0  0  0  0  0  0  0
  -27.0865   20.0370  -11.2846 H   0  0  0  0  0  0  0  0  0  0  0  0
  -28.5923   19.8361  -12.0576 H   0  0  0  0  0  0  0  0  0  0  0  0
  2  1  1  6  0  0  0
  2  3  1  0  0  0  0
  2  6  1  0  0  0  0
  2  7  1  0  0  0  0
  3  4  1  0  0  0  0
  4  5  1  0  0  0  0
  5  6  1  0  0  0  0
  7  8  1  0  0  0  0
  8  9  1  0  0  0  0
  8 12  1  0  0  0  0
  9 10  2  0  0  0  0
  9 11  1  0  0  0  0
 11 13  1  0  0  0  0
 11 14  1  0  0  0  0
M  END
>  <CHROM.0>
-61.59497510,-172.73063392,73.57606860,-43.17921002,-178.25937083,-171.21246754
54.96864770,-176.62111446,-167.66860735

>  <CHROM.1>
-90.73876750,-168.68026878,-44.08346355,172.79284645,-28.81905596,17.87158873
-14.46622784,-2.36995371,-0.22954622,0.81403444

>  <Name>
P136516744

>  <RI>
0

>  <Rbt.Current_Directory>
/home/fstefaniak/projects/zuza/docking/adenine/4TZX

>  <Rbt.Executable>
rbdock ($Id: //depot/dev/client3/rdock/2013.1/src/exe/rbdock.cxx#4 $)

>  <Rbt.Library>
libRbt.so (2013.1, Build901 2013/11/27)

>  <Rbt.Parameter_File>
/home/fstefaniak/progs/rDock//data/scripts/dock_solv.prm

>  <Rbt.Receptor>
4tzx.prm

>  <SCORE>
-46.5102

>  <SCORE.INTER>
-29.0942

>  <SCORE.INTER.CONST>
1

>  <SCORE.INTER.POLAR>
-5.4131

>  <SCORE.INTER.ROT>
4

>  <SCORE.INTER.SOLV>
13.9592

>  <SCORE.INTER.VDW>
-12.2722

>  <SCORE.INTER.norm>
-2.64492

>  <SCORE.INTRA>
0.780593

>  <SCORE.INTRA.DIHEDRAL>
3.45426

>  <SCORE.INTRA.DIHEDRAL.0>
1.28093

>  <SCORE.INTRA.POLAR>
-0.176718

>  <SCORE.INTRA.POLAR.0>
0

>  <SCORE.INTRA.REPUL>
0

>  <SCORE.INTRA.REPUL.0>
0

>  <SCORE.INTRA.SOLV>
0.148375

>  <SCORE.INTRA.SOLV.lig_0>
-13.629

>  <SCORE.INTRA.VDW>
-0.419883

>  <SCORE.INTRA.VDW.0>
-0.425397

>  <SCORE.INTRA.norm>
0.070963

>  <SCORE.RESTR>
0

>  <SCORE.RESTR.CAVITY>
0

>  <SCORE.RESTR.norm>
0

>  <SCORE.SYSTEM>
-18.1966

>  <SCORE.SYSTEM.CONST>
0

>  <SCORE.SYSTEM.DIHEDRAL>
5.65883

>  <SCORE.SYSTEM.POLAR>
-3.01458

>  <SCORE.SYSTEM.SOLV>
-0.39704

>  <SCORE.SYSTEM.VDW>
-3.83638

>  <SCORE.SYSTEM.norm>
-1.65424

>  <SCORE.heavy>
11

>  <SCORE.norm>
-4.2282

$$$$
P136516744
 OpenBabel12072022113D
libRbt.so/2013.1/901 2013/11/27
 14 14  0  0  0  0  0  0  0  0999 V2000
  -29.5854   17.2516  -17.3787 C   0  0  0  0  0  0  0  0  0  0  0  0
  -28.8970   16.4280  -16.2898 C   0  0  1  0  0  0  0  0  0  0  0  0
  -29.2074   14.9348  -16.4392 C   0  0  0  0  0  0  0  0  0  0  0  0
  -27.9020   14.2791  -16.0598 C   0  0  0  0  0  0  0  0  0  0  0  0
  -26.8931   15.2562  -16.6159 C   0  0  0  0  0  0  0  0  0  0  0  0
  -27.4623   16.5623  -16.4547 O   0  0  0  0  0  0  0  0  0  0  0  0
  -29.2738   16.9368  -14.8811 C   0  0  0  0  0  0  0  0  0  0  0  0
  -30.6946   16.7995  -14.6095 N   0  0  0  0  0  0  0  0  0  0  0  0
  -31.4819   17.9008  -14.4714 C   0  0  0  0  0  0  0  0  0  0  0  0
  -32.1666   18.4051  -15.3478 O   0  0  0  0  0  0  0  0  0  0  0  0
  -31.4208   18.4194  -13.2195 N   0  0  0  0  0  0  0  0  0  0  0  0
  -31.1382   16.0027  -15.0478 H   0  0  0  0  0  0  0  0  0  0  0  0
  -30.6470   19.0409  -13.0336 H   0  0  0  0  0  0  0  0  0  0  0  0
  -32.3182   18.7427  -12.8802 H   0  0  0  0  0  0  0  0  0  0  0  0
  2  1  1  6  0  0  0
  2  3  1  0  0  0  0
  2  6  1  0  0  0  0
  2  7  1  0  0  0  0
  3  4  1  0  0  0  0
  4  5  1  0  0  0  0
  5  6  1  0  0  0  0
  7  8  1  0  0  0  0
  8  9  1  0  0  0  0
  8 12  1  0  0  0  0
  9 10  2  0  0  0  0
  9 11  1  0  0  0  0
 11 13  1  0  0  0  0
 11 14  1  0  0  0  0
M  END
>  <CHROM.0>
59.34184051,-67.08575290,-72.82452808,-42.58856573,-177.70463987,-63.36611342
-167.37822974,-179.42148732,-169.37044767

>  <CHROM.1>
62.89501166,-112.73749325,96.36101318,83.62049743,-29.56911338,16.68782102
-15.60250466,0.24604941,0.71292673,-1.27176688

>  <Name>
P136516744

>  <RI>
0

>  <Rbt.Current_Directory>
/home/fstefaniak/projects/zuza/docking/adenine/4TZX

>  <Rbt.Executable>
rbdock ($Id: //depot/dev/client3/rdock/2013.1/src/exe/rbdock.cxx#4 $)

>  <Rbt.Library>
libRbt.so (2013.1, Build901 2013/11/27)

>  <Rbt.Parameter_File>
/home/fstefaniak/progs/rDock//data/scripts/dock_solv.prm

>  <Rbt.Receptor>
4tzx.prm

>  <SCORE>
-46.2713

>  <SCORE.INTER>
-29.7575

>  <SCORE.INTER.CONST>
1

>  <SCORE.INTER.POLAR>
-4.28283

>  <SCORE.INTER.ROT>
4

>  <SCORE.INTER.SOLV>
13.4626

>  <SCORE.INTER.VDW>
-16.3165

>  <SCORE.INTER.norm>
-2.70523

>  <SCORE.INTRA>
0.557011

>  <SCORE.INTRA.DIHEDRAL>
1.38821

>  <SCORE.INTRA.DIHEDRAL.0>
1.28093

>  <SCORE.INTRA.POLAR>
0

>  <SCORE.INTRA.POLAR.0>
0

>  <SCORE.INTRA.REPUL>
0

>  <SCORE.INTRA.REPUL.0>
0

>  <SCORE.INTRA.SOLV>
0.176602

>  <SCORE.INTRA.SOLV.lig_0>
-13.629

>  <SCORE.INTRA.VDW>
-0.225397

>  <SCORE.INTRA.VDW.0>
-0.425397

>  <SCORE.INTRA.norm>
0.0506373

>  <SCORE.RESTR>
0

>  <SCORE.RESTR.CAVITY>
0

>  <SCORE.RESTR.norm>
0

>  <SCORE.SYSTEM>
-17.0708

>  <SCORE.SYSTEM.CONST>
0

>  <SCORE.SYSTEM.DIHEDRAL>
5.72265

>  <SCORE.SYSTEM.POLAR>
-2.44782

>  <SCORE.SYSTEM.SOLV>
-0.160324

>  <SCORE.SYSTEM.VDW>
-5.07522

>  <SCORE.SYSTEM.norm>
-1.55189

>  <SCORE.heavy>
11

>  <SCORE.norm>
-4.20648

$$$$
P136516744
 OpenBabel12072022113D
libRbt.so/2013.1/901 2013/11/27
 14 14  0  0  0  0  0  0  0  0999 V2000
  -29.1689   17.6574  -13.4091 C   0  0  0  0  0  0  0  0  0  0  0  0
  -29.9360   17.4299  -14.7121 C   0  0  1  0  0  0  0  0  0  0  0  0
  -29.0173   17.5638  -15.9313 C   0  0  0  0  0  0  0  0  0  0  0  0
  -29.5332   16.4933  -16.8618 C   0  0  0  0  0  0  0  0  0  0  0  0
  -29.9253   15.4041  -15.8915 C   0  0  0  0  0  0  0  0  0  0  0  0
  -30.4251   16.0644  -14.7211 O   0  0  0  0  0  0  0  0  0  0  0  0
  -31.1481   18.3807  -14.8212 C   0  0  0  0  0  0  0  0  0  0  0  0
  -31.8914   18.1837  -16.0541 N   0  0  0  0  0  0  0  0  0  0  0  0
  -31.5362   18.8452  -17.1891 C   0  0  0  0  0  0  0  0  0  0  0  0
  -30.4892   19.4476  -17.3680 O   0  0  0  0  0  0  0  0  0  0  0  0
  -32.5020   18.7849  -18.1396 N   0  0  0  0  0  0  0  0  0  0  0  0
  -32.2478   17.2470  -16.1929 H   0  0  0  0  0  0  0  0  0  0  0  0
  -32.6297   19.6175  -18.6964 H   0  0  0  0  0  0  0  0  0  0  0  0
  -32.4881   17.9192  -18.6642 H   0  0  0  0  0  0  0  0  0  0  0  0
  2  1  1  1  0  0  0
  2  3  1  0  0  0  0
  2  6  1  0  0  0  0
  2  7  1  0  0  0  0
  3  4  1  0  0  0  0
  4  5  1  0  0  0  0
  5  6  1  0  0  0  0
  7  8  1  0  0  0  0
  8  9  1  0  0  0  0
  8 12  1  0  0  0  0
  9 10  2  0  0  0  0
  9 11  1  0  0  0  0
 11 13  1  0  0  0  0
 11 14  1  0  0  0  0
M  END
>  <CHROM.0>
-57.06491055,-56.67421762,-62.33297417,-42.57030072,-177.61551873,-58.05746334
-68.46264297,-177.48396599,-168.21390706

>  <CHROM.1>
179.89437187,-87.21226945,13.43438438,142.72311353,-30.52781247,17.66105186
-15.94106726,0.21639435,-1.02977910,0.90012999

>  <Name>
P136516744

>  <RI>
0

>  <Rbt.Current_Directory>
/home/fstefaniak/projects/zuza/docking/adenine/4TZX

>  <Rbt.Executable>
rbdock ($Id: //depot/dev/client3/rdock/2013.1/src/exe/rbdock.cxx#4 $)

>  <Rbt.Library>
libRbt.so (2013.1, Build901 2013/11/27)

>  <Rbt.Parameter_File>
/home/fstefaniak/progs/rDock//data/scripts/dock_solv.prm

>  <Rbt.Receptor>
4tzx.prm

>  <SCORE>
-46.1191

>  <SCORE.INTER>
-26.1441

>  <SCORE.INTER.CONST>
1

>  <SCORE.INTER.POLAR>
-5.32978

>  <SCORE.INTER.ROT>
4

>  <SCORE.INTER.SOLV>
13.5659

>  <SCORE.INTER.VDW>
-10.4521

>  <SCORE.INTER.norm>
-2.37674

>  <SCORE.INTRA>
1.08671

>  <SCORE.INTRA.DIHEDRAL>
0.213476

>  <SCORE.INTRA.DIHEDRAL.0>
1.28093

>  <SCORE.INTRA.POLAR>
0

>  <SCORE.INTRA.POLAR.0>
0

>  <SCORE.INTRA.REPUL>
0

>  <SCORE.INTRA.REPUL.0>
0

>  <SCORE.INTRA.SOLV>
1.46829

>  <SCORE.INTRA.SOLV.lig_0>
-13.629

>  <SCORE.INTRA.VDW>
0.245831

>  <SCORE.INTRA.VDW.0>
-0.425397

>  <SCORE.INTRA.norm>
0.0987923

>  <SCORE.RESTR>
0

>  <SCORE.RESTR.CAVITY>
0

>  <SCORE.RESTR.norm>
0

>  <SCORE.SYSTEM>
-21.0617

>  <SCORE.SYSTEM.CONST>
0

>  <SCORE.SYSTEM.DIHEDRAL>
4.60343

>  <SCORE.SYSTEM.POLAR>
-3.08446

>  <SCORE.SYSTEM.SOLV>
-0.11578

>  <SCORE.SYSTEM.VDW>
-5.25548

>  <SCORE.SYSTEM.norm>
-1.9147

>  <SCORE.heavy>
11

>  <SCORE.norm>
-4.19264

$$$$
P136543364
 OpenBabel12072022113D
libRbt.so/2013.1/901 2013/11/27
 15 16  0  0  0  0  0  0  0  0999 V2000
  -27.4140   13.8468  -16.2657 C   0  0  0  0  0  0  0  0  0  0  0  0
  -28.8391   14.1856  -16.6751 C   0  0  0  0  0  0  0  0  0  0  0  0
  -29.2462   15.5471  -16.2320 C   0  0  0  0  0  0  0  0  0  0  0  0
  -29.6588   16.6408  -17.0201 C   0  0  0  0  0  0  0  0  0  0  0  0
  -29.9389   17.6576  -16.1397 C   0  0  0  0  0  0  0  0  0  0  0  0
  -29.6758   17.1508  -14.8974 N   0  0  0  0  0  0  0  0  0  0  0  0
  -29.2602   15.8596  -14.9233 N   0  0  0  0  0  0  0  0  0  0  0  0
  -29.7891   17.8250  -13.6295 C   0  0  0  0  0  0  0  0  0  0  0  0
  -30.3799   18.9102  -16.4467 N   0  0  0  0  0  0  0  0  0  0  0  0
  -30.8109   19.0704  -17.8579 C   0  0  1  0  0  0  0  0  0  0  0  0
  -29.9542   18.1835  -18.8316 C   0  0  0  0  0  0  0  0  0  0  0  0
  -29.8113   16.7904  -18.3608 N   0  0  0  0  0  0  0  0  0  0  0  0
  -32.3029   18.7558  -17.9787 C   0  0  0  0  0  0  0  0  0  0  0  0
  -30.9052   19.4527  -15.7679 H   0  0  0  0  0  0  0  0  0  0  0  0
  -29.3132   16.1704  -18.9908 H   0  0  0  0  0  0  0  0  0  0  0  0
  1  2  1  0  0  0  0
  2  3  1  0  0  0  0
  3  4  1  0  0  0  0
  3  7  2  0  0  0  0
  4  5  2  0  0  0  0
  4 12  1  0  0  0  0
  5  6  1  0  0  0  0
  5  9  1  0  0  0  0
  6  7  1  0  0  0  0
  6  8  1  0  0  0  0
  9 10  1  0  0  0  0
  9 14  1  0  0  0  0
 10 11  1  0  0  0  0
 10 13  1  1  0  0  0
 11 12  1  0  0  0  0
 12 15  1  0  0  0  0
M  END
>  <CHROM.0>
-61.21522534,59.25637135,-68.17120123,-43.48750876,-175.56913113,-63.17149455
-66.14288699,-58.73122322,-168.83917284

>  <CHROM.1>
119.91858189,-29.77983982,16.96227857,-16.55353602,-0.19912077,1.02653920
-1.77270663

>  <Name>
P136543364

>  <RI>
0

>  <Rbt.Current_Directory>
/home/fstefaniak/projects/zuza/docking/adenine/4TZX

>  <Rbt.Executable>
rbdock ($Id: //depot/dev/client3/rdock/2013.1/src/exe/rbdock.cxx#4 $)

>  <Rbt.Library>
libRbt.so (2013.1, Build901 2013/11/27)

>  <Rbt.Parameter_File>
/home/fstefaniak/progs/rDock//data/scripts/dock_solv.prm

>  <Rbt.Receptor>
4tzx.prm

>  <SCORE>
-32.0206

>  <SCORE.INTER>
-11.0225

>  <SCORE.INTER.CONST>
1

>  <SCORE.INTER.POLAR>
-1.30966

>  <SCORE.INTER.ROT>
1

>  <SCORE.INTER.SOLV>
14.1873

>  <SCORE.INTER.VDW>
-11.9786

>  <SCORE.INTER.norm>
-0.847884

>  <SCORE.INTRA>
-0.474734

>  <SCORE.INTRA.DIHEDRAL>
-1.34728

>  <SCORE.INTRA.DIHEDRAL.0>
1.34761

>  <SCORE.INTRA.POLAR>
0

>  <SCORE.INTRA.POLAR.0>
0

>  <SCORE.INTRA.REPUL>
0

>  <SCORE.INTRA.REPUL.0>
0

>  <SCORE.INTRA.SOLV>
-0.0600276

>  <SCORE.INTRA.SOLV.lig_0>
-11.4937

>  <SCORE.INTRA.VDW>
0.228919

>  <SCORE.INTRA.VDW.0>
-0.450218

>  <SCORE.INTRA.norm>
-0.036518

>  <SCORE.RESTR>
0

>  <SCORE.RESTR.CAVITY>
0

>  <SCORE.RESTR.norm>
0

>  <SCORE.SYSTEM>
-20.5234

>  <SCORE.SYSTEM.CONST>
0

>  <SCORE.SYSTEM.DIHEDRAL>
4.52353

>  <SCORE.SYSTEM.POLAR>
-3.03478

>  <SCORE.SYSTEM.SOLV>
0.0584989

>  <SCORE.SYSTEM.VDW>
-5.09365

>  <SCORE.SYSTEM.norm>
-1.57872

>  <SCORE.heavy>
13

>  <SCORE.norm>
-2.46312

$$$$
P136543364
 OpenBabel12072022113D
libRbt.so/2013.1/901 2013/11/27
 15 16  0  0  0  0  0  0  0  0999 V2000
  -27.3976   13.8502  -16.3142 C   0  0  0  0  0  0  0  0  0  0  0  0
  -28.8447   14.1645  -16.6610 C   0  0  0  0  0  0  0  0  0  0  0  0
  -29.2471   15.5294  -16.2243 C   0  0  0  0  0  0  0  0  0  0  0  0
  -29.6579   16.6201  -17.0175 C   0  0  0  0  0  0  0  0  0  0  0  0
  -29.9336   17.6424  -16.1420 C   0  0  0  0  0  0  0  0  0  0  0  0
  -29.6698   17.1413  -14.8974 N   0  0  0  0  0  0  0  0  0  0  0  0
  -29.2580   15.8489  -14.9172 N   0  0  0  0  0  0  0  0  0  0  0  0
  -29.7790   17.8226  -13.6329 C   0  0  0  0  0  0  0  0  0  0  0  0
  -30.3715   18.8946  -16.4547 N   0  0  0  0  0  0  0  0  0  0  0  0
  -30.8045   19.0487  -17.8660 C   0  0  1  0  0  0  0  0  0  0  0  0
  -29.9521   18.1542  -18.8365 C   0  0  0  0  0  0  0  0  0  0  0  0
  -29.8123   16.7632  -18.3586 N   0  0  0  0  0  0  0  0  0  0  0  0
  -32.2976   18.7378  -17.9826 C   0  0  0  0  0  0  0  0  0  0  0  0
  -30.8941   19.4422  -15.7779 H   0  0  0  0  0  0  0  0  0  0  0  0
  -29.3171   16.1385  -18.9863 H   0  0  0  0  0  0  0  0  0  0  0  0
  1  2  1  0  0  0  0
  2  3  1  0  0  0  0
  3  4  1  0  0  0  0
  3  7  2  0  0  0  0
  4  5  2  0  0  0  0
  4 12  1  0  0  0  0
  5  6  1  0  0  0  0
  5  9  1  0  0  0  0
  6  7  1  0  0  0  0
  6  8  1  0  0  0  0
  9 10  1  0  0  0  0
  9 14  1  0  0  0  0
 10 11  1  0  0  0  0
 10 13  1  1  0  0  0
 11 12  1  0  0  0  0
 12 15  1  0  0  0  0
M  END
>  <CHROM.0>
-59.37123409,62.25156417,-68.39446006,-42.51072460,-179.69329050,-60.91820668
-67.18423318,-174.15363317,-169.36579997

>  <CHROM.1>
117.02857168,-29.77538440,16.94666009,-16.55753321,-0.19314528,1.02553996
-1.77668624

>  <Name>
P136543364

>  <RI>
0

>  <Rbt.Current_Directory>
/home/fstefaniak/projects/zuza/docking/adenine/4TZX

>  <Rbt.Executable>
rbdock ($Id: //depot/dev/client3/rdock/2013.1/src/exe/rbdock.cxx#4 $)

>  <Rbt.Library>
libRbt.so (2013.1, Build901 2013/11/27)

>  <Rbt.Parameter_File>
/home/fstefaniak/progs/rDock//data/scripts/dock_solv.prm

>  <Rbt.Receptor>
4tzx.prm

>  <SCORE>
-31.9715

>  <SCORE.INTER>
-11.0732

>  <SCORE.INTER.CONST>
1

>  <SCORE.INTER.POLAR>
-1.28984

>  <SCORE.INTER.ROT>
1

>  <SCORE.INTER.SOLV>
14.1959

>  <SCORE.INTER.VDW>
-12.0813

>  <SCORE.INTER.norm>
-0.851786

>  <SCORE.INTRA>
-0.499798

>  <SCORE.INTRA.DIHEDRAL>
-1.32829

>  <SCORE.INTRA.DIHEDRAL.0>
1.34761

>  <SCORE.INTRA.POLAR>
0

>  <SCORE.INTRA.POLAR.0>
0

>  <SCORE.INTRA.REPUL>
0

>  <SCORE.INTRA.REPUL.0>
0

>  <SCORE.INTRA.SOLV>
-0.0550722

>  <SCORE.INTRA.SOLV.lig_0>
-11.4937

>  <SCORE.INTRA.VDW>
0.191884

>  <SCORE.INTRA.VDW.0>
-0.450218

>  <SCORE.INTRA.norm>
-0.038446

>  <SCORE.RESTR>
0

>  <SCORE.RESTR.CAVITY>
0

>  <SCORE.RESTR.norm>
0

>  <SCORE.SYSTEM>
-20.3985

>  <SCORE.SYSTEM.CONST>
0

>  <SCORE.SYSTEM.DIHEDRAL>
4.72505

>  <SCORE.SYSTEM.POLAR>
-3.04388

>  <SCORE.SYSTEM.SOLV>
-0.0795776

>  <SCORE.SYSTEM.VDW>
-5.00124

>  <SCORE.SYSTEM.norm>
-1.56912

>  <SCORE.heavy>
13

>  <SCORE.norm>
-2.45935

$$$$
P136543364
 OpenBabel12072022113D
libRbt.so/2013.1/901 2013/11/27
 15 16  0  0  0  0  0  0  0  0999 V2000
  -27.4178   13.8739  -16.2573 C   0  0  0  0  0  0  0  0  0  0  0  0
  -28.8575   14.1873  -16.6346 C   0  0  0  0  0  0  0  0  0  0  0  0
  -29.2727   15.5486  -16.1985 C   0  0  0  0  0  0  0  0  0  0  0  0
  -29.6744   16.6414  -16.9935 C   0  0  0  0  0  0  0  0  0  0  0  0
  -29.9690   17.6584  -16.1181 C   0  0  0  0  0  0  0  0  0  0  0  0
  -29.7243   17.1526  -14.8716 N   0  0  0  0  0  0  0  0  0  0  0  0
  -29.3070   15.8619  -14.8904 N   0  0  0  0  0  0  0  0  0  0  0  0
  -29.8576   17.8275  -13.6060 C   0  0  0  0  0  0  0  0  0  0  0  0
  -30.4065   18.9104  -16.4325 N   0  0  0  0  0  0  0  0  0  0  0  0
  -30.8161   19.0693  -17.8502 C   0  0  1  0  0  0  0  0  0  0  0  0
  -29.9438   18.1828  -18.8103 C   0  0  0  0  0  0  0  0  0  0  0  0
  -29.8066   16.7901  -18.3364 N   0  0  0  0  0  0  0  0  0  0  0  0
  -32.3058   18.7531  -17.9935 C   0  0  0  0  0  0  0  0  0  0  0  0
  -30.9427   19.4528  -15.7622 H   0  0  0  0  0  0  0  0  0  0  0  0
  -29.2984   16.1703  -18.9584 H   0  0  0  0  0  0  0  0  0  0  0  0
  1  2  1  0  0  0  0
  2  3  1  0  0  0  0
  3  4  1  0  0  0  0
  3  7  2  0  0  0  0
  4  5  2  0  0  0  0
  4 12  1  0  0  0  0
  5  6  1  0  0  0  0
  5  9  1  0  0  0  0
  6  7  1  0  0  0  0
  6  8  1  0  0  0  0
  9 10  1  0  0  0  0
  9 14  1  0  0  0  0
 10 11  1  0  0  0  0
 10 13  1  1  0  0  0
 11 12  1  0  0  0  0
 12 15  1  0  0  0  0
M  END
>  <CHROM.0>
-61.43521895,61.40881351,-68.87296105,-44.48927965,-58.67921705,-62.50708385
-64.70713871,-61.41015018,-169.02709762

>  <CHROM.1>
117.37618603,-29.80114931,16.96502671,-16.53352428,-0.22687982,1.02524837
-1.74398936

>  <Name>
P136543364

>  <RI>
0

>  <Rbt.Current_Directory>
/home/fstefaniak/projects/zuza/docking/adenine/4TZX

>  <Rbt.Executable>
rbdock ($Id: //depot/dev/client3/rdock/2013.1/src/exe/rbdock.cxx#4 $)

>  <Rbt.Library>
libRbt.so (2013.1, Build901 2013/11/27)

>  <Rbt.Parameter_File>
/home/fstefaniak/progs/rDock//data/scripts/dock_solv.prm

>  <Rbt.Receptor>
4tzx.prm

>  <SCORE>
-31.8681

>  <SCORE.INTER>
-11.0773

>  <SCORE.INTER.CONST>
1

>  <SCORE.INTER.POLAR>
-1.31754

>  <SCORE.INTER.ROT>
1

>  <SCORE.INTER.SOLV>
14.1746

>  <SCORE.INTER.VDW>
-11.9846

>  <SCORE.INTER.norm>
-0.852098

>  <SCORE.INTRA>
-0.497798

>  <SCORE.INTRA.DIHEDRAL>
-1.3322

>  <SCORE.INTRA.DIHEDRAL.0>
1.34761

>  <SCORE.INTRA.POLAR>
0

>  <SCORE.INTRA.POLAR.0>
0

>  <SCORE.INTRA.REPUL>
0

>  <SCORE.INTRA.REPUL.0>
0

>  <SCORE.INTRA.SOLV>
-0.0556795

>  <SCORE.INTRA.SOLV.lig_0>
-11.4937

>  <SCORE.INTRA.VDW>
0.196139

>  <SCORE.INTRA.VDW.0>
-0.450218

>  <SCORE.INTRA.norm>
-0.0382922

>  <SCORE.RESTR>
0

>  <SCORE.RESTR.CAVITY>
0

>  <SCORE.RESTR.norm>
0

>  <SCORE.SYSTEM>
-20.293

>  <SCORE.SYSTEM.CONST>
0

>  <SCORE.SYSTEM.DIHEDRAL>
4.26519

>  <SCORE.SYSTEM.POLAR>
-3.00045

>  <SCORE.SYSTEM.SOLV>
0.233173

>  <SCORE.SYSTEM.VDW>
-5.02667

>  <SCORE.SYSTEM.norm>
-1.561

>  <SCORE.heavy>
13

>  <SCORE.norm>
-2.45139

$$$$
P136543504
 OpenBabel12072022113D
libRbt.so/2013.1/901 2013/11/27
 15 16  0  0  0  0  0  0  0  0999 V2000
  -29.5084   15.7232  -15.7599 C   0  0  0  0  0  0  0  0  0  0  0  0
  -28.0701   15.5123  -16.0440 C   0  0  0  0  0  0  0  0  0  0  0  0
  -27.4053   14.3025  -16.3579 C   0  0  0  0  0  0  0  0  0  0  0  0
  -26.0743   14.6311  -16.5063 C   0  0  0  0  0  0  0  0  0  0  0  0
  -26.0319   15.9982  -16.3611 N   0  0  0  0  0  0  0  0  0  0  0  0
  -27.2245   16.5530  -16.0502 N   0  0  0  0  0  0  0  0  0  0  0  0
  -24.8723   16.8486  -16.4713 C   0  0  0  0  0  0  0  0  0  0  0  0
  -24.9724   13.8517  -16.7381 N   0  0  0  0  0  0  0  0  0  0  0  0
  -24.9648   12.4744  -16.2228 C   0  0  2  0  0  0  0  0  0  0  0  0
  -25.9980   11.5387  -16.8701 C   0  0  0  0  0  0  0  0  0  0  0  0
  -27.2725   12.1566  -17.4333 C   0  0  0  0  0  0  0  0  0  0  0  0
  -27.9355   13.0576  -16.4980 N   0  0  0  0  0  0  0  0  0  0  0  0
  -25.0288   12.4563  -14.6912 C   0  0  0  0  0  0  0  0  0  0  0  0
  -24.0580   14.2884  -16.6506 H   0  0  0  0  0  0  0  0  0  0  0  0
  -28.9488   12.9917  -16.5420 H   0  0  0  0  0  0  0  0  0  0  0  0
  1  2  1  0  0  0  0
  2  3  1  0  0  0  0
  2  6  2  0  0  0  0
  3  4  2  0  0  0  0
  3 12  1  0  0  0  0
  4  5  1  0  0  0  0
  4  8  1  0  0  0  0
  5  6  1  0  0  0  0
  5  7  1  0  0  0  0
  8  9  1  0  0  0  0
  8 14  1  0  0  0  0
  9 10  1  0  0  0  0
  9 13  1  1  0  0  0
 10 11  1  0  0  0  0
 11 12  1  0  0  0  0
 12 15  1  0  0  0  0
M  END
>  <CHROM.0>
-61.29593621,-178.53405058,-63.64241993,-43.18968830,-58.49289664,-59.86593398
-66.28037378,57.54531872,-168.82394793

>  <CHROM.1>
-26.55200073,14.23525062,-16.30066054,1.97023334,-0.02991618,0.06922072

>  <Name>
P136543504

>  <RI>
0

>  <Rbt.Current_Directory>
/home/fstefaniak/projects/zuza/docking/adenine/4TZX

>  <Rbt.Executable>
rbdock ($Id: //depot/dev/client3/rdock/2013.1/src/exe/rbdock.cxx#4 $)

>  <Rbt.Library>
libRbt.so (2013.1, Build901 2013/11/27)

>  <Rbt.Parameter_File>
/home/fstefaniak/progs/rDock//data/scripts/dock_solv.prm

>  <Rbt.Receptor>
4tzx.prm

>  <SCORE>
-39.2134

>  <SCORE.INTER>
-19.1371

>  <SCORE.INTER.CONST>
1

>  <SCORE.INTER.POLAR>
-0.945826

>  <SCORE.INTER.ROT>
0

>  <SCORE.INTER.SOLV>
9.42676

>  <SCORE.INTER.VDW>
-16.3476

>  <SCORE.INTER.norm>
-1.47208

>  <SCORE.INTRA>
0

>  <SCORE.INTRA.DIHEDRAL>
0

>  <SCORE.INTRA.DIHEDRAL.0>
0

>  <SCORE.INTRA.POLAR>
0

>  <SCORE.INTRA.POLAR.0>
0

>  <SCORE.INTRA.REPUL>
0

>  <SCORE.INTRA.REPUL.0>
0

>  <SCORE.INTRA.SOLV>
0

>  <SCORE.INTRA.SOLV.lig_0>
-11.0941

>  <SCORE.INTRA.VDW>
0

>  <SCORE.INTRA.VDW.0>
0

>  <SCORE.INTRA.norm>
0

>  <SCORE.RESTR>
0.0207689

>  <SCORE.RESTR.CAVITY>
0.0207689

>  <SCORE.RESTR.norm>
0.00159761

>  <SCORE.SYSTEM>
-20.0971

>  <SCORE.SYSTEM.CONST>
0

>  <SCORE.SYSTEM.DIHEDRAL>
4.23898

>  <SCORE.SYSTEM.POLAR>
-3.04676

>  <SCORE.SYSTEM.SOLV>
-0.00586547

>  <SCORE.SYSTEM.VDW>
-4.65321

>  <SCORE.SYSTEM.norm>
-1.54593

>  <SCORE.heavy>
13

>  <SCORE.norm>
-3.01641

$$$$
P136543504
 OpenBabel12072022113D
libRbt.so/2013.1/901 2013/11/27
 15 16  0  0  0  0  0  0  0  0999 V2000
  -24.7939   16.7360  -16.8407 C   0  0  0  0  0  0  0  0  0  0  0  0
  -25.9860   15.9144  -16.5283 C   0  0  0  0  0  0  0  0  0  0  0  0
  -26.0402   14.5448  -16.1742 C   0  0  0  0  0  0  0  0  0  0  0  0
  -27.3774   14.2496  -16.0124 C   0  0  0  0  0  0  0  0  0  0  0  0
  -28.0259   15.4496  -16.1905 N   0  0  0  0  0  0  0  0  0  0  0  0
  -27.2071   16.4685  -16.5341 N   0  0  0  0  0  0  0  0  0  0  0  0
  -29.4426   15.6965  -16.0825 C   0  0  0  0  0  0  0  0  0  0  0  0
  -28.0151   13.0679  -15.7438 N   0  0  0  0  0  0  0  0  0  0  0  0
  -27.4091   11.8173  -16.2250 C   0  0  2  0  0  0  0  0  0  0  0  0
  -26.0648   11.4597  -15.5716 C   0  0  0  0  0  0  0  0  0  0  0  0
  -25.1979   12.5972  -15.0444 C   0  0  0  0  0  0  0  0  0  0  0  0
  -25.0098   13.6715  -16.0121 N   0  0  0  0  0  0  0  0  0  0  0  0
  -27.3492   11.7849  -17.7565 C   0  0  0  0  0  0  0  0  0  0  0  0
  -29.0285   13.0483  -15.8273 H   0  0  0  0  0  0  0  0  0  0  0  0
  -24.0734   14.0657  -15.9828 H   0  0  0  0  0  0  0  0  0  0  0  0
  1  2  1  0  0  0  0
  2  3  1  0  0  0  0
  2  6  2  0  0  0  0
  3  4  2  0  0  0  0
  3 12  1  0  0  0  0
  4  5  1  0  0  0  0
  4  8  1  0  0  0  0
  5  6  1  0  0  0  0
  5  7  1  0  0  0  0
  8  9  1  0  0  0  0
  8 14  1  0  0  0  0
  9 10  1  0  0  0  0
  9 13  1  6  0  0  0
 10 11  1  0  0  0  0
 11 12  1  0  0  0  0
 12 15  1  0  0  0  0
M  END
>  <CHROM.0>
-60.15153820,-62.40031366,-70.73667450,-42.99014452,-178.42013486,-176.20845189
-168.36171093,-59.79749833,-169.26825310

>  <CHROM.1>
-26.77403858,14.10252701,-16.21598624,-1.63361804,0.05418244,3.06380000

>  <Name>
P136543504

>  <RI>
0

>  <Rbt.Current_Directory>
/home/fstefaniak/projects/zuza/docking/adenine/4TZX

>  <Rbt.Executable>
rbdock ($Id: //depot/dev/client3/rdock/2013.1/src/exe/rbdock.cxx#4 $)

>  <Rbt.Library>
libRbt.so (2013.1, Build901 2013/11/27)

>  <Rbt.Parameter_File>
/home/fstefaniak/progs/rDock//data/scripts/dock_solv.prm

>  <Rbt.Receptor>
4tzx.prm

>  <SCORE>
-38.7557

>  <SCORE.INTER>
-18.3507

>  <SCORE.INTER.CONST>
1

>  <SCORE.INTER.POLAR>
-0.916515

>  <SCORE.INTER.ROT>
0

>  <SCORE.INTER.SOLV>
8.78288

>  <SCORE.INTER.VDW>
-15.7064

>  <SCORE.INTER.norm>
-1.41159

>  <SCORE.INTRA>
0

>  <SCORE.INTRA.DIHEDRAL>
0

>  <SCORE.INTRA.DIHEDRAL.0>
0

>  <SCORE.INTRA.POLAR>
0

>  <SCORE.INTRA.POLAR.0>
0

>  <SCORE.INTRA.REPUL>
0

>  <SCORE.INTRA.REPUL.0>
0

>  <SCORE.INTRA.SOLV>
0

>  <SCORE.INTRA.SOLV.lig_0>
-11.0941

>  <SCORE.INTRA.VDW>
0

>  <SCORE.INTRA.VDW.0>
0

>  <SCORE.INTRA.norm>
0

>  <SCORE.RESTR>
0.132398

>  <SCORE.RESTR.CAVITY>
0.132398

>  <SCORE.RESTR.norm>
0.0101845

>  <SCORE.SYSTEM>
-20.5375

>  <SCORE.SYSTEM.CONST>
0

>  <SCORE.SYSTEM.DIHEDRAL>
5.14798

>  <SCORE.SYSTEM.POLAR>
-3.02956

>  <SCORE.SYSTEM.SOLV>
-0.142335

>  <SCORE.SYSTEM.VDW>
-5.26166

>  <SCORE.SYSTEM.norm>
-1.5798

>  <SCORE.heavy>
13

>  <SCORE.norm>
-2.98121

$$$$
P136543504
 OpenBabel12072022113D
libRbt.so/2013.1/901 2013/11/27
 15 16  0  0  0  0  0  0  0  0999 V2000
  -29.5513   15.6402  -15.6639 C   0  0  0  0  0  0  0  0  0  0  0  0
  -28.1113   15.4519  -15.9553 C   0  0  0  0  0  0  0  0  0  0  0  0
  -27.4342   14.2576  -16.3005 C   0  0  0  0  0  0  0  0  0  0  0  0
  -26.1070   14.6039  -16.4424 C   0  0  0  0  0  0  0  0  0  0  0  0
  -26.0789   15.9673  -16.2629 N   0  0  0  0  0  0  0  0  0  0  0  0
  -27.2768   16.5014  -15.9365 N   0  0  0  0  0  0  0  0  0  0  0  0
  -24.9286   16.8325  -16.3533 C   0  0  0  0  0  0  0  0  0  0  0  0
  -24.9973   13.8424  -16.6954 N   0  0  0  0  0  0  0  0  0  0  0  0
  -24.9743   12.4527  -16.2149 C   0  0  2  0  0  0  0  0  0  0  0  0
  -25.9985   11.5226  -16.8841 C   0  0  0  0  0  0  0  0  0  0  0  0
  -27.2805   12.1409  -17.4298 C   0  0  0  0  0  0  0  0  0  0  0  0
  -27.9514   13.0109  -16.4711 N   0  0  0  0  0  0  0  0  0  0  0  0
  -25.0354   12.3954  -14.6841 C   0  0  0  0  0  0  0  0  0  0  0  0
  -24.0875   14.2864  -16.5982 H   0  0  0  0  0  0  0  0  0  0  0  0
  -28.9640   12.9354  -16.5153 H   0  0  0  0  0  0  0  0  0  0  0  0
  1  2  1  0  0  0  0
  2  3  1  0  0  0  0
  2  6  2  0  0  0  0
  3  4  2  0  0  0  0
  3 12  1  0  0  0  0
  4  5  1  0  0  0  0
  4  8  1  0  0  0  0
  5  6  1  0  0  0  0
  5  7  1  0  0  0  0
  8  9  1  0  0  0  0
  8 14  1  0  0  0  0
  9 10  1  0  0  0  0
  9 13  1  1  0  0  0
 10 11  1  0  0  0  0
 11 12  1  0  0  0  0
 12 15  1  0  0  0  0
M  END
>  <CHROM.0>
-60.26051616,48.97376801,-68.13987869,-43.20653635,-59.14748609,58.92143892
-67.71257622,-57.57051048,-169.20790250

>  <CHROM.1>
-26.58015730,14.19797296,-16.24614775,1.98070580,-0.02749880,0.09469431

>  <Name>
P136543504

>  <RI>
0

>  <Rbt.Current_Directory>
/home/fstefaniak/projects/zuza/docking/adenine/4TZX

>  <Rbt.Executable>
rbdock ($Id: //depot/dev/client3/rdock/2013.1/src/exe/rbdock.cxx#4 $)

>  <Rbt.Library>
libRbt.so (2013.1, Build901 2013/11/27)

>  <Rbt.Parameter_File>
/home/fstefaniak/progs/rDock//data/scripts/dock_solv.prm

>  <Rbt.Receptor>
4tzx.prm

>  <SCORE>
-38.0635

>  <SCORE.INTER>
-18.8057

>  <SCORE.INTER.CONST>
1

>  <SCORE.INTER.POLAR>
-1.00475

>  <SCORE.INTER.ROT>
0

>  <SCORE.INTER.SOLV>
9.30203

>  <SCORE.INTER.VDW>
-15.8886

>  <SCORE.INTER.norm>
-1.44659

>  <SCORE.INTRA>
0

>  <SCORE.INTRA.DIHEDRAL>
0

>  <SCORE.INTRA.DIHEDRAL.0>
0

>  <SCORE.INTRA.POLAR>
0

>  <SCORE.INTRA.POLAR.0>
0

>  <SCORE.INTRA.REPUL>
0

>  <SCORE.INTRA.REPUL.0>
0

>  <SCORE.INTRA.SOLV>
0

>  <SCORE.INTRA.SOLV.lig_0>
-11.0941

>  <SCORE.INTRA.VDW>
0

>  <SCORE.INTRA.VDW.0>
0

>  <SCORE.INTRA.norm>
0

>  <SCORE.RESTR>
0.0114491

>  <SCORE.RESTR.CAVITY>
0.0114491

>  <SCORE.RESTR.norm>
0.000880704

>  <SCORE.SYSTEM>
-19.2692

>  <SCORE.SYSTEM.CONST>
0

>  <SCORE.SYSTEM.DIHEDRAL>
5.07874

>  <SCORE.SYSTEM.POLAR>
-3.08668

>  <SCORE.SYSTEM.SOLV>
0.147643

>  <SCORE.SYSTEM.VDW>
-4.29937

>  <SCORE.SYSTEM.norm>
-1.48225

>  <SCORE.heavy>
13

>  <SCORE.norm>
-2.92796

$$$$
P136606442
 OpenBabel12072022113D
libRbt.so/2013.1/901 2013/11/27
 19 19  0  0  0  0  0  0  0  0999 V2000
  -27.2198   12.0726  -16.5859 C   0  0  0  0  0  0  0  0  0  0  0  0
  -26.3348   13.0317  -15.7897 C   0  0  0  0  0  0  0  0  0  0  0  0
  -26.5921   14.4272  -16.3570 C   0  0  0  0  0  0  0  0  0  0  0  0
  -27.9516   14.3285  -17.0452 C   0  0  0  0  0  0  0  0  0  0  0  0
  -27.9261   12.9234  -17.6365 C   0  0  0  0  0  0  0  0  0  0  0  0
  -29.0487   14.4880  -16.0964 N   0  0  0  0  0  0  0  0  0  0  0  0
  -29.5491   15.7162  -15.7882 C   0  0  0  0  0  0  0  0  0  0  0  0
  -29.8321   16.1098  -14.6618 O   0  0  0  0  0  0  0  0  0  0  0  0
  -29.7100   16.5059  -16.8991 N   0  0  0  0  0  0  0  0  0  0  0  0
  -30.1899   17.8707  -16.7417 C   0  0  0  0  0  0  0  0  0  0  0  0
  -30.7920   18.3283  -18.0452 C   0  0  0  0  0  0  0  0  0  0  0  0
  -30.2046   17.9885  -19.1762 N   0  3  0  0  0  0  0  0  0  0  0  0
  -30.5757   18.2753  -20.0736 H   0  0  0  0  0  0  0  0  0  0  0  0
  -29.3697   17.4121  -19.1863 H   0  0  0  0  0  0  0  0  0  0  0  0
  -31.8815   19.0663  -18.0247 N   0  0  0  0  0  0  0  0  0  0  0  0
  -29.1688   13.7520  -15.4143 H   0  0  0  0  0  0  0  0  0  0  0  0
  -28.9683   16.3750  -17.5764 H   0  0  0  0  0  0  0  0  0  0  0  0
  -32.3424   19.2312  -17.1176 H   0  0  0  0  0  0  0  0  0  0  0  0
  -32.3573   19.4100  -18.8452 H   0  0  0  0  0  0  0  0  0  0  0  0
  1  2  1  0  0  0  0
  1  5  1  0  0  0  0
  2  3  1  0  0  0  0
  3  4  1  0  0  0  0
  4  5  1  0  0  0  0
  4  6  1  0  0  0  0
  6  7  1  0  0  0  0
  6 16  1  0  0  0  0
  7  8  2  0  0  0  0
  7  9  1  0  0  0  0
  9 10  1  0  0  0  0
  9 17  1  0  0  0  0
 10 11  1  0  0  0  0
 11 12  2  0  0  0  0
 11 15  1  0  0  0  0
 12 13  1  0  0  0  0
 12 14  1  0  0  0  0
 15 18  1  0  0  0  0
 15 19  1  0  0  0  0
M  CHG  1  12   1
M  END
>  <CHROM.0>
-39.24510899,-49.47083137,-70.45588949,-43.02771805,54.02551668,-59.48441910
-167.68421280,-58.27410087,-168.26046953

>  <CHROM.1>
88.13237680,-136.36754531,-177.75256008,-157.74485966,-39.54206975,-29.05394077
15.64417852,-16.84725880,-0.35911063,0.91600475,-1.40029019

>  <Name>
P136606442

>  <RI>
0

>  <Rbt.Current_Directory>
/home/fstefaniak/projects/zuza/docking/adenine/4TZX

>  <Rbt.Executable>
rbdock ($Id: //depot/dev/client3/rdock/2013.1/src/exe/rbdock.cxx#4 $)

>  <Rbt.Library>
libRbt.so (2013.1, Build901 2013/11/27)

>  <Rbt.Parameter_File>
/home/fstefaniak/progs/rDock//data/scripts/dock_solv.prm

>  <Rbt.Receptor>
4tzx.prm

>  <SCORE>
-58.1783

>  <SCORE.INTER>
-41.993

>  <SCORE.INTER.CONST>
1

>  <SCORE.INTER.POLAR>
-6.11799

>  <SCORE.INTER.ROT>
5

>  <SCORE.INTER.SOLV>
23.6427

>  <SCORE.INTER.VDW>
-22.4162

>  <SCORE.INTER.norm>
-3.23023

>  <SCORE.INTRA>
1.93023

>  <SCORE.INTRA.DIHEDRAL>
-0.571129

>  <SCORE.INTRA.DIHEDRAL.0>
3.68913

>  <SCORE.INTRA.POLAR>
0.748294

>  <SCORE.INTRA.POLAR.0>
-0.749906

>  <SCORE.INTRA.REPUL>
0

>  <SCORE.INTRA.REPUL.0>
0

>  <SCORE.INTRA.SOLV>
-1.6236

>  <SCORE.INTRA.SOLV.lig_0>
-34.6748

>  <SCORE.INTRA.VDW>
0.483397

>  <SCORE.INTRA.VDW.0>
-0.162773

>  <SCORE.INTRA.norm>
0.148479

>  <SCORE.RESTR>
0

>  <SCORE.RESTR.CAVITY>
0

>  <SCORE.RESTR.norm>
0

>  <SCORE.SYSTEM>
-18.1156

>  <SCORE.SYSTEM.CONST>
0

>  <SCORE.SYSTEM.DIHEDRAL>
7.66192

>  <SCORE.SYSTEM.POLAR>
-3.19893

>  <SCORE.SYSTEM.SOLV>
-0.00332838

>  <SCORE.SYSTEM.VDW>
-3.96683

>  <SCORE.SYSTEM.norm>
-1.39351

>  <SCORE.heavy>
13

>  <SCORE.norm>
-4.47525

$$$$
P136606442
 OpenBabel12072022113D
libRbt.so/2013.1/901 2013/11/27
 19 19  0  0  0  0  0  0  0  0999 V2000
  -31.7928   17.8586  -16.0746 C   0  0  0  0  0  0  0  0  0  0  0  0
  -30.7058   18.0625  -17.1300 C   0  0  0  0  0  0  0  0  0  0  0  0
  -29.3725   17.7929  -16.4333 C   0  0  0  0  0  0  0  0  0  0  0  0
  -29.7288   16.9436  -15.2153 C   0  0  0  0  0  0  0  0  0  0  0  0
  -31.0638   17.5338  -14.7748 C   0  0  0  0  0  0  0  0  0  0  0  0
  -29.8581   15.5321  -15.5620 N   0  0  0  0  0  0  0  0  0  0  0  0
  -28.7990   14.8146  -16.0279 C   0  0  0  0  0  0  0  0  0  0  0  0
  -28.7420   13.5919  -16.1019 O   0  0  0  0  0  0  0  0  0  0  0  0
  -27.7611   15.6191  -16.4270 N   0  0  0  0  0  0  0  0  0  0  0  0
  -26.4009   15.2732  -16.0424 C   0  0  0  0  0  0  0  0  0  0  0  0
  -25.4921   16.4282  -16.3764 C   0  0  0  0  0  0  0  0  0  0  0  0
  -24.7734   16.3789  -17.4812 N   0  3  0  0  0  0  0  0  0  0  0  0
  -24.1502   17.1328  -17.7425 H   0  0  0  0  0  0  0  0  0  0  0  0
  -24.8342   15.5906  -18.1170 H   0  0  0  0  0  0  0  0  0  0  0  0
  -25.4269   17.4524  -15.5525 N   0  0  0  0  0  0  0  0  0  0  0  0
  -30.7836   15.2084  -15.8073 H   0  0  0  0  0  0  0  0  0  0  0  0
  -27.8783   15.9590  -17.3738 H   0  0  0  0  0  0  0  0  0  0  0  0
  -26.0715   17.4738  -14.7483 H   0  0  0  0  0  0  0  0  0  0  0  0
  -24.8546   18.2704  -15.6979 H   0  0  0  0  0  0  0  0  0  0  0  0
  1  2  1  0  0  0  0
  1  5  1  0  0  0  0
  2  3  1  0  0  0  0
  3  4  1  0  0  0  0
  4  5  1  0  0  0  0
  4  6  1  0  0  0  0
  6  7  1  0  0  0  0
  6 16  1  0  0  0  0
  7  8  2  0  0  0  0
  7  9  1  0  0  0  0
  9 10  1  0  0  0  0
  9 17  1  0  0  0  0
 10 11  1  0  0  0  0
 11 12  2  0  0  0  0
 11 15  1  0  0  0  0
 12 13  1  0  0  0  0
 12 14  1  0  0  0  0
 15 18  1  0  0  0  0
 15 19  1  0  0  0  0
M  CHG  1  12   1
M  END
>  <CHROM.0>
-58.51106304,-62.55015601,61.36187666,-42.35888696,-179.65853051,-176.17574656
56.60874791,-58.15735211,-168.40864279

>  <CHROM.1>
63.46279244,165.30782249,135.58725126,-169.62801233,-99.74660176,-28.41428655
16.39706830,-16.11062558,-2.94128088,-0.13727839,3.07988156

>  <Name>
P136606442

>  <RI>
0

>  <Rbt.Current_Directory>
/home/fstefaniak/projects/zuza/docking/adenine/4TZX

>  <Rbt.Executable>
rbdock ($Id: //depot/dev/client3/rdock/2013.1/src/exe/rbdock.cxx#4 $)

>  <Rbt.Library>
libRbt.so (2013.1, Build901 2013/11/27)

>  <Rbt.Parameter_File>
/home/fstefaniak/progs/rDock//data/scripts/dock_solv.prm

>  <Rbt.Receptor>
4tzx.prm

>  <SCORE>
-54.5816

>  <SCORE.INTER>
-37.7789

>  <SCORE.INTER.CONST>
1

>  <SCORE.INTER.POLAR>
-5.61077

>  <SCORE.INTER.ROT>
5

>  <SCORE.INTER.SOLV>
24.9053

>  <SCORE.INTER.VDW>
-21.7185

>  <SCORE.INTER.norm>
-2.90607

>  <SCORE.INTRA>
2.2379

>  <SCORE.INTRA.DIHEDRAL>
-0.662905

>  <SCORE.INTRA.DIHEDRAL.0>
3.68913

>  <SCORE.INTRA.POLAR>
0.747099

>  <SCORE.INTRA.POLAR.0>
-0.749906

>  <SCORE.INTRA.REPUL>
0

>  <SCORE.INTRA.REPUL.0>
0

>  <SCORE.INTRA.SOLV>
-1.47108

>  <SCORE.INTRA.SOLV.lig_0>
-34.6748

>  <SCORE.INTRA.VDW>
0.764754

>  <SCORE.INTRA.VDW.0>
-0.162773

>  <SCORE.INTRA.norm>
0.172146

>  <SCORE.RESTR>
0

>  <SCORE.RESTR.CAVITY>
0

>  <SCORE.RESTR.norm>
0

>  <SCORE.SYSTEM>
-19.0406

>  <SCORE.SYSTEM.CONST>
0

>  <SCORE.SYSTEM.DIHEDRAL>
4.28918

>  <SCORE.SYSTEM.POLAR>
-3.05313

>  <SCORE.SYSTEM.SOLV>
-0.219652

>  <SCORE.SYSTEM.VDW>
-3.87314

>  <SCORE.SYSTEM.norm>
-1.46466

>  <SCORE.heavy>
13

>  <SCORE.norm>
-4.19858

$$$$
P136606442
 OpenBabel12072022113D
libRbt.so/2013.1/901 2013/11/27
 19 19  0  0  0  0  0  0  0  0999 V2000
  -27.0771   14.1190  -16.0682 C   0  0  0  0  0  0  0  0  0  0  0  0
  -25.6280   14.0605  -16.5514 C   0  0  0  0  0  0  0  0  0  0  0  0
  -25.3076   15.4416  -17.1219 C   0  0  0  0  0  0  0  0  0  0  0  0
  -26.3309   16.3786  -16.4842 C   0  0  0  0  0  0  0  0  0  0  0  0
  -27.5845   15.5131  -16.4228 C   0  0  0  0  0  0  0  0  0  0  0  0
  -25.9130   16.8073  -15.1535 N   0  0  0  0  0  0  0  0  0  0  0  0
  -25.9707   18.1144  -14.7769 C   0  0  0  0  0  0  0  0  0  0  0  0
  -25.3614   19.0376  -15.3063 O   0  0  0  0  0  0  0  0  0  0  0  0
  -26.8109   18.3115  -13.7097 N   0  0  0  0  0  0  0  0  0  0  0  0
  -26.5552   19.4128  -12.7934 C   0  0  0  0  0  0  0  0  0  0  0  0
  -27.2759   19.1448  -11.4973 C   0  0  0  0  0  0  0  0  0  0  0  0
  -28.5702   18.8925  -11.5245 N   0  3  0  0  0  0  0  0  0  0  0  0
  -29.0924   18.7077  -10.6770 H   0  0  0  0  0  0  0  0  0  0  0  0
  -29.0839   18.8570  -12.3987 H   0  0  0  0  0  0  0  0  0  0  0  0
  -26.6007   19.1815  -10.3682 N   0  0  0  0  0  0  0  0  0  0  0  0
  -25.2518   16.2131  -14.6725 H   0  0  0  0  0  0  0  0  0  0  0  0
  -27.7823   18.1540  -13.9492 H   0  0  0  0  0  0  0  0  0  0  0  0
  -25.5780   19.3016  -10.4147 H   0  0  0  0  0  0  0  0  0  0  0  0
  -26.9967   19.0075   -9.4568 H   0  0  0  0  0  0  0  0  0  0  0  0
  1  2  1  0  0  0  0
  1  5  1  0  0  0  0
  2  3  1  0  0  0  0
  3  4  1  0  0  0  0
  4  5  1  0  0  0  0
  4  6  1  0  0  0  0
  6  7  1  0  0  0  0
  6 16  1  0  0  0  0
  7  8  2  0  0  0  0
  7  9  1  0  0  0  0
  9 10  1  0  0  0  0
  9 17  1  0  0  0  0
 10 11  1  0  0  0  0
 11 12  2  0  0  0  0
 11 15  1  0  0  0  0
 12 13  1  0  0  0  0
 12 14  1  0  0  0  0
 15 18  1  0  0  0  0
 15 19  1  0  0  0  0
M  CHG  1  12   1
M  END
>  <CHROM.0>
-56.50027975,-57.98893068,-51.62534454,-42.74630050,-174.59095097,-52.57211850
-62.09307356,-55.76005371,-167.09659885

>  <CHROM.1>
132.96991099,-61.17344858,151.30140920,-160.53020050,-53.94202283,-26.54875903
17.29249455,-14.38962292,1.34388921,-0.84096510,-2.42870191

>  <Name>
P136606442

>  <RI>
0

>  <Rbt.Current_Directory>
/home/fstefaniak/projects/zuza/docking/adenine/4TZX

>  <Rbt.Executable>
rbdock ($Id: //depot/dev/client3/rdock/2013.1/src/exe/rbdock.cxx#4 $)

>  <Rbt.Library>
libRbt.so (2013.1, Build901 2013/11/27)

>  <Rbt.Parameter_File>
/home/fstefaniak/progs/rDock//data/scripts/dock_solv.prm

>  <Rbt.Receptor>
4tzx.prm

>  <SCORE>
-54.4986

>  <SCORE.INTER>
-34.9811

>  <SCORE.INTER.CONST>
1

>  <SCORE.INTER.POLAR>
-5.2674

>  <SCORE.INTER.ROT>
5

>  <SCORE.INTER.SOLV>
25.4958

>  <SCORE.INTER.VDW>
-21.1947

>  <SCORE.INTER.norm>
-2.69085

>  <SCORE.INTRA>
1.0258

>  <SCORE.INTRA.DIHEDRAL>
0.618908

>  <SCORE.INTRA.DIHEDRAL.0>
3.68913

>  <SCORE.INTRA.POLAR>
0.747512

>  <SCORE.INTRA.POLAR.0>
-0.749906

>  <SCORE.INTRA.REPUL>
0

>  <SCORE.INTRA.REPUL.0>
0

>  <SCORE.INTRA.SOLV>
-2.0642

>  <SCORE.INTRA.SOLV.lig_0>
-34.6748

>  <SCORE.INTRA.VDW>
-0.793092

>  <SCORE.INTRA.VDW.0>
-0.162773

>  <SCORE.INTRA.norm>
0.0789079

>  <SCORE.RESTR>
0

>  <SCORE.RESTR.CAVITY>
0

>  <SCORE.RESTR.norm>
0

>  <SCORE.SYSTEM>
-20.5433

>  <SCORE.SYSTEM.CONST>
0

>  <SCORE.SYSTEM.DIHEDRAL>
5.05619

>  <SCORE.SYSTEM.POLAR>
-3.17778

>  <SCORE.SYSTEM.SOLV>
0.0589254

>  <SCORE.SYSTEM.VDW>
-4.80798

>  <SCORE.SYSTEM.norm>
-1.58025

>  <SCORE.heavy>
13

>  <SCORE.norm>
-4.1922

$$$$
P136618838
 OpenBabel12072022113D
libRbt.so/2013.1/901 2013/11/27
 17 18  0  0  0  0  0  0  0  0999 V2000
  -31.9419   18.5108  -17.1443 C   0  0  0  0  0  0  0  0  0  0  0  0
  -31.5559   18.4051  -18.6198 C   0  0  0  0  0  0  0  0  0  0  0  0
  -30.0336   18.2840  -18.6565 C   0  0  0  0  0  0  0  0  0  0  0  0
  -29.6499   17.7581  -17.2747 C   0  0  0  0  0  0  0  0  0  0  0  0
  -30.6318   18.4841  -16.3612 C   0  0  0  0  0  0  0  0  0  0  0  0
  -29.8105   16.3169  -17.1819 N   0  0  0  0  0  0  0  0  0  0  0  0
  -29.7114   15.6620  -15.9875 C   0  0  0  0  0  0  0  0  0  0  0  0
  -30.4044   15.9083  -15.0067 O   0  0  0  0  0  0  0  0  0  0  0  0
  -28.7727   14.6700  -15.9418 N   0  0  0  0  0  0  0  0  0  0  0  0
  -27.9320   14.2221  -17.0068 C   0  0  2  0  0  0  0  0  0  0  0  0
  -27.1562   12.9403  -16.8789 C   0  0  0  0  0  0  0  0  0  0  0  0
  -26.4257   14.2497  -16.8786 C   0  0  2  0  0  0  0  0  0  0  0  0
  -25.8001   14.7121  -15.6368 N   0  0  0  0  0  0  0  0  0  0  0  0
  -29.6104   15.7652  -18.0013 H   0  0  0  0  0  0  0  0  0  0  0  0
  -28.7561   14.1716  -15.0599 H   0  0  0  0  0  0  0  0  0  0  0  0
  -24.7954   14.5399  -15.6456 H   0  0  0  0  0  0  0  0  0  0  0  0
  -25.8892   15.7269  -15.5537 H   0  0  0  0  0  0  0  0  0  0  0  0
  1  2  1  0  0  0  0
  1  5  1  0  0  0  0
  2  3  1  0  0  0  0
  3  4  1  0  0  0  0
  4  5  1  0  0  0  0
  4  6  1  0  0  0  0
  6  7  1  0  0  0  0
  6 14  1  0  0  0  0
  7  8  2  0  0  0  0
  7  9  1  0  0  0  0
  9 15  1  0  0  0  0
 10 11  1  0  0  0  0
 10  9  1  1  0  0  0
 10 12  1  0  0  0  0
 11 12  1  0  0  0  0
 12 13  1  1  0  0  0
 13 16  1  0  0  0  0
 13 17  1  0  0  0  0
M  END
>  <CHROM.0>
-59.70904652,-58.28678994,-71.10833918,-43.77970561,61.09632263,-59.39544135
-171.70787512,63.69028798,-169.30910621

>  <CHROM.1>
-170.39419098,57.35769673,-167.28950366,171.24607388,-29.20213257,16.15438494
-16.78290091,2.54665061,0.59223223,-0.96677333

>  <Name>
P136618838

>  <RI>
0

>  <Rbt.Current_Directory>
/home/fstefaniak/projects/zuza/docking/adenine/4TZX

>  <Rbt.Executable>
rbdock ($Id: //depot/dev/client3/rdock/2013.1/src/exe/rbdock.cxx#4 $)

>  <Rbt.Library>
libRbt.so (2013.1, Build901 2013/11/27)

>  <Rbt.Parameter_File>
/home/fstefaniak/progs/rDock//data/scripts/dock_solv.prm

>  <Rbt.Receptor>
4tzx.prm

>  <SCORE>
-53.3216

>  <SCORE.INTER>
-35.0166

>  <SCORE.INTER.CONST>
1

>  <SCORE.INTER.POLAR>
-3.85428

>  <SCORE.INTER.ROT>
4

>  <SCORE.INTER.SOLV>
14.2759

>  <SCORE.INTER.VDW>
-21.5221

>  <SCORE.INTER.norm>
-2.69359

>  <SCORE.INTRA>
0.338193

>  <SCORE.INTRA.DIHEDRAL>
0.161828

>  <SCORE.INTRA.DIHEDRAL.0>
3.47871

>  <SCORE.INTRA.POLAR>
0

>  <SCORE.INTRA.POLAR.0>
0

>  <SCORE.INTRA.REPUL>
0

>  <SCORE.INTRA.REPUL.0>
0

>  <SCORE.INTRA.SOLV>
-0.715104

>  <SCORE.INTRA.SOLV.lig_0>
-15.5703

>  <SCORE.INTRA.VDW>
0.614831

>  <SCORE.INTRA.VDW.0>
-1.71192

>  <SCORE.INTRA.norm>
0.0260149

>  <SCORE.RESTR>
0

>  <SCORE.RESTR.CAVITY>
0

>  <SCORE.RESTR.norm>
0

>  <SCORE.SYSTEM>
-18.6432

>  <SCORE.SYSTEM.CONST>
0

>  <SCORE.SYSTEM.DIHEDRAL>
4.75673

>  <SCORE.SYSTEM.POLAR>
-3.01307

>  <SCORE.SYSTEM.SOLV>
-0.225093

>  <SCORE.SYSTEM.VDW>
-3.89575

>  <SCORE.SYSTEM.norm>
-1.43409

>  <SCORE.heavy>
13

>  <SCORE.norm>
-4.10166

$$$$
P136618838
 OpenBabel12072022113D
libRbt.so/2013.1/901 2013/11/27
 17 18  0  0  0  0  0  0  0  0999 V2000
  -31.9546   18.5865  -17.2605 C   0  0  0  0  0  0  0  0  0  0  0  0
  -31.5288   18.4475  -18.7223 C   0  0  0  0  0  0  0  0  0  0  0  0
  -30.0081   18.3033  -18.7133 C   0  0  0  0  0  0  0  0  0  0  0  0
  -29.6716   17.7978  -17.3118 C   0  0  0  0  0  0  0  0  0  0  0  0
  -30.6677   18.5553  -16.4402 C   0  0  0  0  0  0  0  0  0  0  0  0
  -29.8568   16.3611  -17.1971 N   0  0  0  0  0  0  0  0  0  0  0  0
  -29.8491   15.7339  -15.9840 C   0  0  0  0  0  0  0  0  0  0  0  0
  -30.6831   15.9221  -15.1054 O   0  0  0  0  0  0  0  0  0  0  0  0
  -28.8323   14.8408  -15.7950 N   0  0  0  0  0  0  0  0  0  0  0  0
  -27.8222   14.4657  -16.7334 C   0  0  2  0  0  0  0  0  0  0  0  0
  -26.5621   13.7894  -16.2684 C   0  0  0  0  0  0  0  0  0  0  0  0
  -26.4982   15.1937  -16.7899 C   0  0  2  0  0  0  0  0  0  0  0  0
  -26.2169   16.2854  -15.8538 N   0  0  0  0  0  0  0  0  0  0  0  0
  -29.6075   15.7878  -17.9877 H   0  0  0  0  0  0  0  0  0  0  0  0
  -28.8810   14.3572  -14.9061 H   0  0  0  0  0  0  0  0  0  0  0  0
  -25.2831   16.1955  -15.4548 H   0  0  0  0  0  0  0  0  0  0  0  0
  -26.2030   17.1795  -16.3488 H   0  0  0  0  0  0  0  0  0  0  0  0
  1  2  1  0  0  0  0
  1  5  1  0  0  0  0
  2  3  1  0  0  0  0
  3  4  1  0  0  0  0
  4  5  1  0  0  0  0
  4  6  1  0  0  0  0
  6  7  1  0  0  0  0
  6 14  1  0  0  0  0
  7  8  2  0  0  0  0
  7  9  1  0  0  0  0
  9 15  1  0  0  0  0
 10 11  1  0  0  0  0
 10  9  1  1  0  0  0
 10 12  1  0  0  0  0
 11 12  1  0  0  0  0
 12 13  1  1  0  0  0
 13 16  1  0  0  0  0
 13 17  1  0  0  0  0
M  END
>  <CHROM.0>
-59.80537032,-61.57312741,-64.06990905,52.45955365,-60.63030722,-179.94591950
-67.89334641,-58.07404923,-168.97264358

>  <CHROM.1>
-168.01537187,64.54289230,162.25230358,134.36546266,-29.23365008,16.48337570
-16.75752954,2.44875611,0.29491363,-0.73089232

>  <Name>
P136618838

>  <RI>
0

>  <Rbt.Current_Directory>
/home/fstefaniak/projects/zuza/docking/adenine/4TZX

>  <Rbt.Executable>
rbdock ($Id: //depot/dev/client3/rdock/2013.1/src/exe/rbdock.cxx#4 $)

>  <Rbt.Library>
libRbt.so (2013.1, Build901 2013/11/27)

>  <Rbt.Parameter_File>
/home/fstefaniak/progs/rDock//data/scripts/dock_solv.prm

>  <Rbt.Receptor>
4tzx.prm

>  <SCORE>
-52.4036

>  <SCORE.INTER>
-34.2843

>  <SCORE.INTER.CONST>
1

>  <SCORE.INTER.POLAR>
-3.53463

>  <SCORE.INTER.ROT>
4

>  <SCORE.INTER.SOLV>
14.7016

>  <SCORE.INTER.VDW>
-22.2413

>  <SCORE.INTER.norm>
-2.63725

>  <SCORE.INTRA>
-0.211198

>  <SCORE.INTRA.DIHEDRAL>
-0.289055

>  <SCORE.INTRA.DIHEDRAL.0>
3.47871

>  <SCORE.INTRA.POLAR>
0

>  <SCORE.INTRA.POLAR.0>
0

>  <SCORE.INTRA.REPUL>
0

>  <SCORE.INTRA.REPUL.0>
0

>  <SCORE.INTRA.SOLV>
-0.35708

>  <SCORE.INTRA.SOLV.lig_0>
-15.5703

>  <SCORE.INTRA.VDW>
0.11187

>  <SCORE.INTRA.VDW.0>
-1.71192

>  <SCORE.INTRA.norm>
-0.016246

>  <SCORE.RESTR>
0

>  <SCORE.RESTR.CAVITY>
0

>  <SCORE.RESTR.norm>
0

>  <SCORE.SYSTEM>
-17.9081

>  <SCORE.SYSTEM.CONST>
0

>  <SCORE.SYSTEM.DIHEDRAL>
3.31409

>  <SCORE.SYSTEM.POLAR>
-2.47622

>  <SCORE.SYSTEM.SOLV>
0.00290997

>  <SCORE.SYSTEM.VDW>
-4.79034

>  <SCORE.SYSTEM.norm>
-1.37754

>  <SCORE.heavy>
13

>  <SCORE.norm>
-4.03104

$$$$
P136618838
 OpenBabel12072022113D
libRbt.so/2013.1/901 2013/11/27
 17 18  0  0  0  0  0  0  0  0999 V2000
  -32.0457   18.4922  -17.1401 C   0  0  0  0  0  0  0  0  0  0  0  0
  -31.6099   18.4266  -18.6041 C   0  0  0  0  0  0  0  0  0  0  0  0
  -30.0824   18.4180  -18.5960 C   0  0  0  0  0  0  0  0  0  0  0  0
  -29.7016   17.9112  -17.2063 C   0  0  0  0  0  0  0  0  0  0  0  0
  -30.7607   18.5560  -16.3186 C   0  0  0  0  0  0  0  0  0  0  0  0
  -29.7582   16.4613  -17.1262 N   0  0  0  0  0  0  0  0  0  0  0  0
  -29.8415   15.8144  -15.9264 C   0  0  0  0  0  0  0  0  0  0  0  0
  -30.7070   16.0302  -15.0854 O   0  0  0  0  0  0  0  0  0  0  0  0
  -28.8812   14.8675  -15.7058 N   0  0  0  0  0  0  0  0  0  0  0  0
  -27.8464   14.4571  -16.6016 C   0  0  2  0  0  0  0  0  0  0  0  0
  -27.8876   13.0978  -17.2433 C   0  0  0  0  0  0  0  0  0  0  0  0
  -26.8460   13.3944  -16.2064 C   0  0  2  0  0  0  0  0  0  0  0  0
  -26.9422   12.7418  -14.8980 N   0  0  0  0  0  0  0  0  0  0  0  0
  -29.3568   15.9301  -17.8829 H   0  0  0  0  0  0  0  0  0  0  0  0
  -28.9975   14.3723  -14.8297 H   0  0  0  0  0  0  0  0  0  0  0  0
  -27.8988   12.4483  -14.7035 H   0  0  0  0  0  0  0  0  0  0  0  0
  -26.3990   11.8760  -14.8950 H   0  0  0  0  0  0  0  0  0  0  0  0
  1  2  1  0  0  0  0
  1  5  1  0  0  0  0
  2  3  1  0  0  0  0
  3  4  1  0  0  0  0
  4  5  1  0  0  0  0
  4  6  1  0  0  0  0
  6  7  1  0  0  0  0
  6 14  1  0  0  0  0
  7  8  2  0  0  0  0
  7  9  1  0  0  0  0
  9 15  1  0  0  0  0
 10 11  1  0  0  0  0
 10  9  1  1  0  0  0
 10 12  1  0  0  0  0
 11 12  1  0  0  0  0
 12 13  1  1  0  0  0
 13 16  1  0  0  0  0
 13 17  1  0  0  0  0
M  END
>  <CHROM.0>
-62.12073276,-57.94774768,-57.14604021,177.25562320,59.49615430,-61.13194868
-64.68631872,-57.20342088,-169.05313179

>  <CHROM.1>
-160.75427386,54.95098745,-109.65246572,47.00387740,-29.45759353,16.01470500
-16.63335737,2.50572908,0.79029258,-1.08566590

>  <Name>
P136618838

>  <RI>
0

>  <Rbt.Current_Directory>
/home/fstefaniak/projects/zuza/docking/adenine/4TZX

>  <Rbt.Executable>
rbdock ($Id: //depot/dev/client3/rdock/2013.1/src/exe/rbdock.cxx#4 $)

>  <Rbt.Library>
libRbt.so (2013.1, Build901 2013/11/27)

>  <Rbt.Parameter_File>
/home/fstefaniak/progs/rDock//data/scripts/dock_solv.prm

>  <Rbt.Receptor>
4tzx.prm

>  <SCORE>
-51.4237

>  <SCORE.INTER>
-34.7213

>  <SCORE.INTER.CONST>
1

>  <SCORE.INTER.POLAR>
-4.0848

>  <SCORE.INTER.ROT>
4

>  <SCORE.INTER.SOLV>
14.003

>  <SCORE.INTER.VDW>
-20.4659

>  <SCORE.INTER.norm>
-2.67087

>  <SCORE.INTRA>
1.03796

>  <SCORE.INTRA.DIHEDRAL>
0.104167

>  <SCORE.INTRA.DIHEDRAL.0>
3.47871

>  <SCORE.INTRA.POLAR>
0

>  <SCORE.INTRA.POLAR.0>
0

>  <SCORE.INTRA.REPUL>
0

>  <SCORE.INTRA.REPUL.0>
0

>  <SCORE.INTRA.SOLV>
-0.558517

>  <SCORE.INTRA.SOLV.lig_0>
-15.5703

>  <SCORE.INTRA.VDW>
1.26513

>  <SCORE.INTRA.VDW.0>
-1.71192

>  <SCORE.INTRA.norm>
0.0798429

>  <SCORE.RESTR>
0

>  <SCORE.RESTR.CAVITY>
0

>  <SCORE.RESTR.norm>
0

>  <SCORE.SYSTEM>
-17.7403

>  <SCORE.SYSTEM.CONST>
0

>  <SCORE.SYSTEM.DIHEDRAL>
2.9068

>  <SCORE.SYSTEM.POLAR>
-2.46964

>  <SCORE.SYSTEM.SOLV>
-0.181974

>  <SCORE.SYSTEM.VDW>
-4.50303

>  <SCORE.SYSTEM.norm>
-1.36464

>  <SCORE.heavy>
13

>  <SCORE.norm>
-3.95567

$$$$
P136897612
 OpenBabel12072022113D
libRbt.so/2013.1/901 2013/11/27
 17 17  0  0  0  0  0  0  0  0999 V2000
  -25.7189   15.6523  -16.2614 C   0  0  0  0  0  0  0  0  0  0  0  0
  -25.6263   14.1241  -16.3392 C   0  0  0  0  0  0  0  0  0  0  0  0
  -26.6640   13.5105  -15.5662 O   0  0  0  0  0  0  0  0  0  0  0  0
  -27.9526   13.9310  -16.0427 C   0  0  0  0  0  0  0  0  0  0  0  0
  -28.1114   15.4701  -15.9659 C   0  0  1  0  0  0  0  0  0  0  0  0
  -27.0253   16.1430  -16.7273 N   0  0  0  0  0  0  0  0  0  0  0  0
  -29.4607   15.9305  -16.5367 C   0  0  0  0  0  0  0  0  0  0  0  0
  -30.1288   16.9952  -15.6890 C   0  0  0  0  0  0  0  0  0  0  0  0
  -30.2430   16.9077  -14.4660 O   0  0  0  0  0  0  0  0  0  0  0  0
  -30.5922   18.1324  -16.3103 N   0  0  0  0  0  0  0  0  0  0  0  0
  -30.3225   18.5928  -17.5732 C   0  0  0  0  0  0  0  0  0  0  0  0
  -29.7455   17.9906  -18.4655 O   0  0  0  0  0  0  0  0  0  0  0  0
  -30.8364   19.8335  -17.8040 N   0  0  0  0  0  0  0  0  0  0  0  0
  -27.0784   17.1501  -16.5746 H   0  0  0  0  0  0  0  0  0  0  0  0
  -31.0346   18.7751  -15.6744 H   0  0  0  0  0  0  0  0  0  0  0  0
  -31.8322   19.9852  -17.7402 H   0  0  0  0  0  0  0  0  0  0  0  0
  -30.2672   20.5837  -17.4280 H   0  0  0  0  0  0  0  0  0  0  0  0
  1  2  1  0  0  0  0
  1  6  1  0  0  0  0
  2  3  1  0  0  0  0
  3  4  1  0  0  0  0
  4  5  1  0  0  0  0
  5  6  1  0  0  0  0
  5  7  1  6  0  0  0
  6 14  1  0  0  0  0
  7  8  1  0  0  0  0
  8  9  2  0  0  0  0
  8 10  1  0  0  0  0
 10 11  1  0  0  0  0
 10 15  1  0  0  0  0
 11 12  2  0  0  0  0
 11 13  1  0  0  0  0
 13 16  1  0  0  0  0
 13 17  1  0  0  0  0
M  END
>  <CHROM.0>
-58.29398485,-172.23360840,-61.60952991,-40.23954874,-59.37168236,-178.22435013
-68.92608074,-174.57921740,-168.92029054

>  <CHROM.1>
137.06820151,-47.41391381,-60.38488613,-28.65463629,16.42580111,-16.44058281
-0.69033459,0.51167926,-0.79344477

>  <Name>
P136897612

>  <RI>
0

>  <Rbt.Current_Directory>
/home/fstefaniak/projects/zuza/docking/adenine/4TZX

>  <Rbt.Executable>
rbdock ($Id: //depot/dev/client3/rdock/2013.1/src/exe/rbdock.cxx#4 $)

>  <Rbt.Library>
libRbt.so (2013.1, Build901 2013/11/27)

>  <Rbt.Parameter_File>
/home/fstefaniak/progs/rDock//data/scripts/dock_solv.prm

>  <Rbt.Receptor>
4tzx.prm

>  <SCORE>
-59.8407

>  <SCORE.INTER>
-41.4571

>  <SCORE.INTER.CONST>
1

>  <SCORE.INTER.POLAR>
-5.17829

>  <SCORE.INTER.ROT>
3

>  <SCORE.INTER.SOLV>
16.3913

>  <SCORE.INTER.VDW>
-21.4409

>  <SCORE.INTER.norm>
-3.18901

>  <SCORE.INTRA>
2.21385

>  <SCORE.INTRA.DIHEDRAL>
5.36261

>  <SCORE.INTRA.DIHEDRAL.0>
1.89798

>  <SCORE.INTRA.POLAR>
0

>  <SCORE.INTRA.POLAR.0>
0

>  <SCORE.INTRA.REPUL>
0

>  <SCORE.INTRA.REPUL.0>
0

>  <SCORE.INTRA.SOLV>
0.560563

>  <SCORE.INTRA.SOLV.lig_0>
-24.6586

>  <SCORE.INTRA.VDW>
-0.747734

>  <SCORE.INTRA.VDW.0>
-0.379583

>  <SCORE.INTRA.norm>
0.170296

>  <SCORE.RESTR>
0

>  <SCORE.RESTR.CAVITY>
0

>  <SCORE.RESTR.norm>
0

>  <SCORE.SYSTEM>
-20.5974

>  <SCORE.SYSTEM.CONST>
0

>  <SCORE.SYSTEM.DIHEDRAL>
5.19548

>  <SCORE.SYSTEM.POLAR>
-3.10092

>  <SCORE.SYSTEM.SOLV>
-0.088817

>  <SCORE.SYSTEM.VDW>
-5.09744

>  <SCORE.SYSTEM.norm>
-1.58442

>  <SCORE.heavy>
13

>  <SCORE.norm>
-4.60313

$$$$
P136897612
 OpenBabel12072022113D
libRbt.so/2013.1/901 2013/11/27
 17 17  0  0  0  0  0  0  0  0999 V2000
  -25.6745   15.5939  -16.0558 C   0  0  0  0  0  0  0  0  0  0  0  0
  -25.7087   14.0614  -16.0606 C   0  0  0  0  0  0  0  0  0  0  0  0
  -26.8931   13.5758  -15.4186 O   0  0  0  0  0  0  0  0  0  0  0  0
  -28.0615   14.0769  -16.0881 C   0  0  0  0  0  0  0  0  0  0  0  0
  -28.0917   15.6257  -16.0942 C   0  0  1  0  0  0  0  0  0  0  0  0
  -26.8557   16.1669  -16.7201 N   0  0  0  0  0  0  0  0  0  0  0  0
  -29.3034   16.1667  -16.8671 C   0  0  0  0  0  0  0  0  0  0  0  0
  -30.3469   16.7961  -15.9651 C   0  0  0  0  0  0  0  0  0  0  0  0
  -30.3871   16.6069  -14.7489 O   0  0  0  0  0  0  0  0  0  0  0  0
  -31.2671   17.6524  -16.5255 N   0  0  0  0  0  0  0  0  0  0  0  0
  -31.2477   18.2465  -17.7608 C   0  0  0  0  0  0  0  0  0  0  0  0
  -30.4863   17.9970  -18.6826 O   0  0  0  0  0  0  0  0  0  0  0  0
  -32.2499   19.1548  -17.9259 N   0  0  0  0  0  0  0  0  0  0  0  0
  -26.8393   17.1813  -16.6155 H   0  0  0  0  0  0  0  0  0  0  0  0
  -31.9297   18.0092  -15.8571 H   0  0  0  0  0  0  0  0  0  0  0  0
  -32.2452   20.0114  -17.3920 H   0  0  0  0  0  0  0  0  0  0  0  0
  -32.5498   19.2561  -18.8893 H   0  0  0  0  0  0  0  0  0  0  0  0
  1  2  1  0  0  0  0
  1  6  1  0  0  0  0
  2  3  1  0  0  0  0
  3  4  1  0  0  0  0
  4  5  1  0  0  0  0
  5  6  1  0  0  0  0
  5  7  1  6  0  0  0
  6 14  1  0  0  0  0
  7  8  1  0  0  0  0
  8  9  2  0  0  0  0
  8 10  1  0  0  0  0
 10 11  1  0  0  0  0
 10 15  1  0  0  0  0
 11 12  2  0  0  0  0
 11 13  1  0  0  0  0
 13 16  1  0  0  0  0
 13 17  1  0  0  0  0
M  END
>  <CHROM.0>
-61.57576021,69.21809716,-71.05842029,-42.23537083,-55.62609898,-173.95070878
-167.26348828,-58.19727647,-169.40775642

>  <CHROM.1>
109.24564516,-16.80867029,67.80734199,-28.98266589,16.30575008,-16.53313746
-0.59222944,0.38431857,-0.90025750

>  <Name>
P136897612

>  <RI>
0

>  <Rbt.Current_Directory>
/home/fstefaniak/projects/zuza/docking/adenine/4TZX

>  <Rbt.Executable>
rbdock ($Id: //depot/dev/client3/rdock/2013.1/src/exe/rbdock.cxx#4 $)

>  <Rbt.Library>
libRbt.so (2013.1, Build901 2013/11/27)

>  <Rbt.Parameter_File>
/home/fstefaniak/progs/rDock//data/scripts/dock_solv.prm

>  <Rbt.Receptor>
4tzx.prm

>  <SCORE>
-57.6275

>  <SCORE.INTER>
-40.5915

>  <SCORE.INTER.CONST>
1

>  <SCORE.INTER.POLAR>
-5.80603

>  <SCORE.INTER.ROT>
3

>  <SCORE.INTER.SOLV>
15.5384

>  <SCORE.INTER.VDW>
-18.487

>  <SCORE.INTER.norm>
-3.12242

>  <SCORE.INTRA>
2.06057

>  <SCORE.INTRA.DIHEDRAL>
4.73474

>  <SCORE.INTRA.DIHEDRAL.0>
1.89798

>  <SCORE.INTRA.POLAR>
0

>  <SCORE.INTRA.POLAR.0>
0

>  <SCORE.INTRA.REPUL>
0

>  <SCORE.INTRA.REPUL.0>
0

>  <SCORE.INTRA.SOLV>
-0.0529057

>  <SCORE.INTRA.SOLV.lig_0>
-24.6586

>  <SCORE.INTRA.VDW>
-0.280346

>  <SCORE.INTRA.VDW.0>
-0.379583

>  <SCORE.INTRA.norm>
0.158505

>  <SCORE.RESTR>
0

>  <SCORE.RESTR.CAVITY>
0

>  <SCORE.RESTR.norm>
0

>  <SCORE.SYSTEM>
-19.0966

>  <SCORE.SYSTEM.CONST>
0

>  <SCORE.SYSTEM.DIHEDRAL>
5.96485

>  <SCORE.SYSTEM.POLAR>
-3.03946

>  <SCORE.SYSTEM.SOLV>
0.0718281

>  <SCORE.SYSTEM.VDW>
-4.61174

>  <SCORE.SYSTEM.norm>
-1.46897

>  <SCORE.heavy>
13

>  <SCORE.norm>
-4.43288

$$$$
P136897612
 OpenBabel12072022113D
libRbt.so/2013.1/901 2013/11/27
 17 17  0  0  0  0  0  0  0  0999 V2000
  -25.6519   15.6448  -16.2659 C   0  0  0  0  0  0  0  0  0  0  0  0
  -25.4896   14.1217  -16.3261 C   0  0  0  0  0  0  0  0  0  0  0  0
  -26.4953   13.4704  -15.5417 O   0  0  0  0  0  0  0  0  0  0  0  0
  -27.8035   13.8257  -16.0179 C   0  0  0  0  0  0  0  0  0  0  0  0
  -28.0325   15.3567  -15.9586 C   0  0  1  0  0  0  0  0  0  0  0  0
  -26.9811   16.0695  -16.7322 N   0  0  0  0  0  0  0  0  0  0  0  0
  -29.4036   15.7479  -16.5293 C   0  0  0  0  0  0  0  0  0  0  0  0
  -30.1495   16.7340  -15.6519 C   0  0  0  0  0  0  0  0  0  0  0  0
  -30.3047   16.5734  -14.4408 O   0  0  0  0  0  0  0  0  0  0  0  0
  -30.6401   17.8834  -16.2283 N   0  0  0  0  0  0  0  0  0  0  0  0
  -30.3449   18.4248  -17.4527 C   0  0  0  0  0  0  0  0  0  0  0  0
  -29.7090   17.8986  -18.3530 O   0  0  0  0  0  0  0  0  0  0  0  0
  -30.9049   19.6534  -17.6359 N   0  0  0  0  0  0  0  0  0  0  0  0
  -27.0798   17.0749  -16.5911 H   0  0  0  0  0  0  0  0  0  0  0  0
  -31.1340   18.4700  -15.5763 H   0  0  0  0  0  0  0  0  0  0  0  0
  -30.4130   20.4806  -17.3319 H   0  0  0  0  0  0  0  0  0  0  0  0
  -31.3907   19.7489  -18.5209 H   0  0  0  0  0  0  0  0  0  0  0  0
  1  2  1  0  0  0  0
  1  6  1  0  0  0  0
  2  3  1  0  0  0  0
  3  4  1  0  0  0  0
  4  5  1  0  0  0  0
  5  6  1  0  0  0  0
  5  7  1  6  0  0  0
  6 14  1  0  0  0  0
  7  8  1  0  0  0  0
  8  9  2  0  0  0  0
  8 10  1  0  0  0  0
 10 11  1  0  0  0  0
 10 15  1  0  0  0  0
 11 12  2  0  0  0  0
 11 13  1  0  0  0  0
 13 16  1  0  0  0  0
 13 17  1  0  0  0  0
M  END
>  <CHROM.0>
-61.91274922,-177.91247714,-53.96022816,-43.28064204,-53.77821676,-63.93742802
-66.16310020,-58.80772162,-168.95200084

>  <CHROM.1>
133.92623564,-49.67506847,87.59581530,-28.61328054,16.28671972,-16.39794463
-0.67445222,0.45938036,-0.75557511

>  <Name>
P136897612

>  <RI>
0

>  <Rbt.Current_Directory>
/home/fstefaniak/projects/zuza/docking/adenine/4TZX

>  <Rbt.Executable>
rbdock ($Id: //depot/dev/client3/rdock/2013.1/src/exe/rbdock.cxx#4 $)

>  <Rbt.Library>
libRbt.so (2013.1, Build901 2013/11/27)

>  <Rbt.Parameter_File>
/home/fstefaniak/progs/rDock//data/scripts/dock_solv.prm

>  <Rbt.Receptor>
4tzx.prm

>  <SCORE>
-57.5499

>  <SCORE.INTER>
-39.1391

>  <SCORE.INTER.CONST>
1

>  <SCORE.INTER.POLAR>
-4.69782

>  <SCORE.INTER.ROT>
3

>  <SCORE.INTER.SOLV>
16.0317

>  <SCORE.INTER.VDW>
-21.3772

>  <SCORE.INTER.norm>
-3.0107

>  <SCORE.INTRA>
2.37068

>  <SCORE.INTRA.DIHEDRAL>
5.69751

>  <SCORE.INTRA.DIHEDRAL.0>
1.89798

>  <SCORE.INTRA.POLAR>
0

>  <SCORE.INTRA.POLAR.0>
0

>  <SCORE.INTRA.REPUL>
0

>  <SCORE.INTRA.REPUL.0>
0

>  <SCORE.INTRA.SOLV>
0.509789

>  <SCORE.INTRA.SOLV.lig_0>
-24.6586

>  <SCORE.INTRA.VDW>
-0.732966

>  <SCORE.INTRA.VDW.0>
-0.379583

>  <SCORE.INTRA.norm>
0.18236

>  <SCORE.RESTR>
0

>  <SCORE.RESTR.CAVITY>
0

>  <SCORE.RESTR.norm>
0

>  <SCORE.SYSTEM>
-20.7815

>  <SCORE.SYSTEM.CONST>
0

>  <SCORE.SYSTEM.DIHEDRAL>
4.54542

>  <SCORE.SYSTEM.POLAR>
-3.09091

>  <SCORE.SYSTEM.SOLV>
0.173351

>  <SCORE.SYSTEM.VDW>
-5.12421

>  <SCORE.SYSTEM.norm>
-1.59857

>  <SCORE.heavy>
13

>  <SCORE.norm>
-4.42692

$$$$
P137017646
 OpenBabel12072022113D
libRbt.so/2013.1/901 2013/11/27
 15 16  0  0  0  0  0  0  0  0999 V2000
  -25.2985   16.7557  -16.4883 C   0  0  0  0  0  0  0  0  0  0  0  0
  -26.4713   16.0255  -16.7977 C   0  0  0  0  0  0  0  0  0  0  0  0
  -27.4218   16.3946  -15.8644 C   0  0  0  0  0  0  0  0  0  0  0  0
  -26.8778   17.2947  -14.9874 O   0  0  0  0  0  0  0  0  0  0  0  0
  -25.5965   17.5127  -15.3809 C   0  0  0  0  0  0  0  0  0  0  0  0
  -28.8340   16.0053  -15.5874 C   0  0  1  0  0  0  0  0  0  0  0  0
  -29.8128   17.1135  -15.5847 C   0  0  0  0  0  0  0  0  0  0  0  0
  -30.0769   18.1278  -16.4634 C   0  0  0  0  0  0  0  0  0  0  0  0
  -31.0520   18.8882  -15.9528 N   0  0  0  0  0  0  0  0  0  0  0  0
  -31.3488   18.3322  -14.7513 N   0  5  0  0  0  0  0  0  0  0  0  0
  -30.5954   17.2483  -14.4875 N   0  0  0  0  0  0  0  0  0  0  0  0
  -29.2922   15.0097  -16.6116 N   0  3  0  0  0  0  0  0  0  0  0  0
  -30.2725   14.7911  -16.4147 H   0  0  0  0  0  0  0  0  0  0  0  0
  -29.1315   15.2875  -17.5744 H   0  0  0  0  0  0  0  0  0  0  0  0
  -28.8061   14.1329  -16.3425 H   0  0  0  0  0  0  0  0  0  0  0  0
  1  2  1  0  0  0  0
  1  5  2  0  0  0  0
  2  3  2  0  0  0  0
  3  4  1  0  0  0  0
  3  6  1  0  0  0  0
  4  5  1  0  0  0  0
  6  7  1  0  0  0  0
  6 12  1  6  0  0  0
  7  8  1  0  0  0  0
  7 11  2  0  0  0  0
  8  9  2  0  0  0  0
  9 10  1  0  0  0  0
 10 11  1  0  0  0  0
 12 13  1  0  0  0  0
 12 14  1  0  0  0  0
 12 15  1  0  0  0  0
M  CHG  2  10  -1  12   1
M  END
>  <CHROM.0>
-57.17556483,-59.99362445,-43.60240407,-41.58074256,-54.93108267,-60.46721335
-63.88580007,-56.90865198,-168.57944014

>  <CHROM.1>
-123.42670394,49.88539188,-177.89029671,-28.58939263,17.03174579,-15.74479391
-0.29467089,0.02452501,0.38802463

>  <Name>
P137017646

>  <RI>
0

>  <Rbt.Current_Directory>
/home/fstefaniak/projects/zuza/docking/adenine/4TZX

>  <Rbt.Executable>
rbdock ($Id: //depot/dev/client3/rdock/2013.1/src/exe/rbdock.cxx#4 $)

>  <Rbt.Library>
libRbt.so (2013.1, Build901 2013/11/27)

>  <Rbt.Parameter_File>
/home/fstefaniak/progs/rDock//data/scripts/dock_solv.prm

>  <Rbt.Receptor>
4tzx.prm

>  <SCORE>
-57.3965

>  <SCORE.INTER>
-35.7817

>  <SCORE.INTER.CONST>
1

>  <SCORE.INTER.POLAR>
-6.05573

>  <SCORE.INTER.ROT>
2

>  <SCORE.INTER.SOLV>
18.6598

>  <SCORE.INTER.VDW>
-14.822

>  <SCORE.INTER.norm>
-2.98181

>  <SCORE.INTRA>
-1.07341

>  <SCORE.INTRA.DIHEDRAL>
-0.417957

>  <SCORE.INTRA.DIHEDRAL.0>
2.72891

>  <SCORE.INTRA.POLAR>
0.203492

>  <SCORE.INTRA.POLAR.0>
-0.203492

>  <SCORE.INTRA.REPUL>
0

>  <SCORE.INTRA.REPUL.0>
0

>  <SCORE.INTRA.SOLV>
-1.21521

>  <SCORE.INTRA.SOLV.lig_0>
-31.824

>  <SCORE.INTRA.VDW>
-0.948698

>  <SCORE.INTRA.VDW.0>
-0.725981

>  <SCORE.INTRA.norm>
-0.0894506

>  <SCORE.RESTR>
0

>  <SCORE.RESTR.CAVITY>
0

>  <SCORE.RESTR.norm>
0

>  <SCORE.SYSTEM>
-20.5414

>  <SCORE.SYSTEM.CONST>
0

>  <SCORE.SYSTEM.DIHEDRAL>
5.62343

>  <SCORE.SYSTEM.POLAR>
-3.25143

>  <SCORE.SYSTEM.SOLV>
0.239971

>  <SCORE.SYSTEM.VDW>
-4.81064

>  <SCORE.SYSTEM.norm>
-1.71179

>  <SCORE.heavy>
12

>  <SCORE.norm>
-4.78305

$$$$
P137017646
 OpenBabel12072022113D
libRbt.so/2013.1/901 2013/11/27
 15 16  0  0  0  0  0  0  0  0999 V2000
  -25.2979   16.7839  -16.5326 C   0  0  0  0  0  0  0  0  0  0  0  0
  -26.4778   16.0526  -16.8111 C   0  0  0  0  0  0  0  0  0  0  0  0
  -27.4016   16.4158  -15.8492 C   0  0  0  0  0  0  0  0  0  0  0  0
  -26.8342   17.3131  -14.9843 O   0  0  0  0  0  0  0  0  0  0  0  0
  -25.5652   17.5355  -15.4137 C   0  0  0  0  0  0  0  0  0  0  0  0
  -28.8044   16.0223  -15.5331 C   0  0  1  0  0  0  0  0  0  0  0  0
  -29.7946   17.1202  -15.5506 C   0  0  0  0  0  0  0  0  0  0  0  0
  -30.0601   18.1237  -16.4413 C   0  0  0  0  0  0  0  0  0  0  0  0
  -31.0482   18.8785  -15.9478 N   0  0  0  0  0  0  0  0  0  0  0  0
  -31.3516   18.3304  -14.7443 N   0  5  0  0  0  0  0  0  0  0  0  0
  -30.5899   17.2569  -14.4628 N   0  0  0  0  0  0  0  0  0  0  0  0
  -29.2704   14.9874  -16.5139 N   0  3  0  0  0  0  0  0  0  0  0  0
  -28.6718   14.1644  -16.4041 H   0  0  0  0  0  0  0  0  0  0  0  0
  -30.2603   14.7697  -16.4623 H   0  0  0  0  0  0  0  0  0  0  0  0
  -28.9720   15.3633  -17.4343 H   0  0  0  0  0  0  0  0  0  0  0  0
  1  2  1  0  0  0  0
  1  5  2  0  0  0  0
  2  3  2  0  0  0  0
  3  4  1  0  0  0  0
  3  6  1  0  0  0  0
  4  5  1  0  0  0  0
  6  7  1  0  0  0  0
  6 12  1  6  0  0  0
  7  8  1  0  0  0  0
  7 11  2  0  0  0  0
  8  9  2  0  0  0  0
  9 10  1  0  0  0  0
 10 11  1  0  0  0  0
 12 13  1  0  0  0  0
 12 14  1  0  0  0  0
 12 15  1  0  0  0  0
M  CHG  2  10  -1  12   1
M  END
>  <CHROM.0>
-58.16305540,-56.62246844,-44.40535531,-41.65423109,-54.90472331,-53.19095700
-66.57949851,-55.77949130,-169.65274296

>  <CHROM.1>
-121.06771150,47.70495081,62.31489230,-28.57233011,17.04117829,-15.73036468
-0.29002812,0.04312175,0.35759431

>  <Name>
P137017646

>  <RI>
0

>  <Rbt.Current_Directory>
/home/fstefaniak/projects/zuza/docking/adenine/4TZX

>  <Rbt.Executable>
rbdock ($Id: //depot/dev/client3/rdock/2013.1/src/exe/rbdock.cxx#4 $)

>  <Rbt.Library>
libRbt.so (2013.1, Build901 2013/11/27)

>  <Rbt.Parameter_File>
/home/fstefaniak/progs/rDock//data/scripts/dock_solv.prm

>  <Rbt.Receptor>
4tzx.prm

>  <SCORE>
-56.0003

>  <SCORE.INTER>
-34.9382

>  <SCORE.INTER.CONST>
1

>  <SCORE.INTER.POLAR>
-6.11733

>  <SCORE.INTER.ROT>
2

>  <SCORE.INTER.SOLV>
18.0141

>  <SCORE.INTER.VDW>
-13.8391

>  <SCORE.INTER.norm>
-2.91152

>  <SCORE.INTRA>
-0.713668

>  <SCORE.INTRA.DIHEDRAL>
-0.458914

>  <SCORE.INTRA.DIHEDRAL.0>
2.72891

>  <SCORE.INTRA.POLAR>
0.203492

>  <SCORE.INTRA.POLAR.0>
-0.203492

>  <SCORE.INTRA.REPUL>
0

>  <SCORE.INTRA.REPUL.0>
0

>  <SCORE.INTRA.SOLV>
-0.875192

>  <SCORE.INTRA.SOLV.lig_0>
-31.824

>  <SCORE.INTRA.VDW>
-0.73849

>  <SCORE.INTRA.VDW.0>
-0.725981

>  <SCORE.INTRA.norm>
-0.0594724

>  <SCORE.RESTR>
0

>  <SCORE.RESTR.CAVITY>
0

>  <SCORE.RESTR.norm>
0

>  <SCORE.SYSTEM>
-20.3484

>  <SCORE.SYSTEM.CONST>
0

>  <SCORE.SYSTEM.DIHEDRAL>
5.81584

>  <SCORE.SYSTEM.POLAR>
-3.24672

>  <SCORE.SYSTEM.SOLV>
0.24597

>  <SCORE.SYSTEM.VDW>
-4.76379

>  <SCORE.SYSTEM.norm>
-1.6957

>  <SCORE.heavy>
12

>  <SCORE.norm>
-4.66669

$$$$
P137017646
 OpenBabel12072022113D
libRbt.so/2013.1/901 2013/11/27
 15 16  0  0  0  0  0  0  0  0999 V2000
  -25.3094   16.7320  -16.4865 C   0  0  0  0  0  0  0  0  0  0  0  0
  -26.4813   15.9992  -16.7931 C   0  0  0  0  0  0  0  0  0  0  0  0
  -27.4333   16.3735  -15.8635 C   0  0  0  0  0  0  0  0  0  0  0  0
  -26.8912   17.2793  -14.9913 O   0  0  0  0  0  0  0  0  0  0  0  0
  -25.6094   17.4957  -15.3843 C   0  0  0  0  0  0  0  0  0  0  0  0
  -28.8457   15.9850  -15.5861 C   0  0  1  0  0  0  0  0  0  0  0  0
  -29.8267   17.0912  -15.6007 C   0  0  0  0  0  0  0  0  0  0  0  0
  -30.0297   18.1476  -16.4454 C   0  0  0  0  0  0  0  0  0  0  0  0
  -31.0427   18.8814  -15.9710 N   0  0  0  0  0  0  0  0  0  0  0  0
  -31.4246   18.2665  -14.8234 N   0  5  0  0  0  0  0  0  0  0  0  0
  -30.6882   17.1712  -14.5587 N   0  0  0  0  0  0  0  0  0  0  0  0
  -29.2986   14.9755  -16.5990 N   0  3  0  0  0  0  0  0  0  0  0  0
  -29.1078   15.3610  -17.5278 H   0  0  0  0  0  0  0  0  0  0  0  0
  -28.9179   14.0438  -16.4685 H   0  0  0  0  0  0  0  0  0  0  0  0
  -30.3345   15.0155  -16.5456 H   0  0  0  0  0  0  0  0  0  0  0  0
  1  2  1  0  0  0  0
  1  5  2  0  0  0  0
  2  3  2  0  0  0  0
  3  4  1  0  0  0  0
  3  6  1  0  0  0  0
  4  5  1  0  0  0  0
  6  7  1  0  0  0  0
  6 12  1  6  0  0  0
  7  8  1  0  0  0  0
  7 11  2  0  0  0  0
  8  9  2  0  0  0  0
  9 10  1  0  0  0  0
 10 11  1  0  0  0  0
 12 13  1  0  0  0  0
 12 14  1  0  0  0  0
 12 15  1  0  0  0  0
M  CHG  2  10  -1  12   1
M  END
>  <CHROM.0>
-59.74315660,-62.10316388,63.06379821,-43.38573109,-58.42098420,-59.27102450
56.90514090,-56.68175696,-168.40380585

>  <CHROM.1>
-123.02893426,44.50771430,-52.59472294,-28.60748519,17.00731463,-15.75852201
-0.28497743,0.02937755,0.35620071

>  <Name>
P137017646

>  <RI>
0

>  <Rbt.Current_Directory>
/home/fstefaniak/projects/zuza/docking/adenine/4TZX

>  <Rbt.Executable>
rbdock ($Id: //depot/dev/client3/rdock/2013.1/src/exe/rbdock.cxx#4 $)

>  <Rbt.Library>
libRbt.so (2013.1, Build901 2013/11/27)

>  <Rbt.Parameter_File>
/home/fstefaniak/progs/rDock//data/scripts/dock_solv.prm

>  <Rbt.Receptor>
4tzx.prm

>  <SCORE>
-55.3885

>  <SCORE.INTER>
-35.9034

>  <SCORE.INTER.CONST>
1

>  <SCORE.INTER.POLAR>
-6.0058

>  <SCORE.INTER.ROT>
2

>  <SCORE.INTER.SOLV>
18.486

>  <SCORE.INTER.VDW>
-15.0116

>  <SCORE.INTER.norm>
-2.99195

>  <SCORE.INTRA>
-0.401268

>  <SCORE.INTRA.DIHEDRAL>
-0.277284

>  <SCORE.INTRA.DIHEDRAL.0>
2.72891

>  <SCORE.INTRA.POLAR>
0.203492

>  <SCORE.INTRA.POLAR.0>
-0.203492

>  <SCORE.INTRA.REPUL>
0

>  <SCORE.INTRA.REPUL.0>
0

>  <SCORE.INTRA.SOLV>
-0.821364

>  <SCORE.INTRA.SOLV.lig_0>
-31.824

>  <SCORE.INTRA.VDW>
-0.543818

>  <SCORE.INTRA.VDW.0>
-0.725981

>  <SCORE.INTRA.norm>
-0.033439

>  <SCORE.RESTR>
0

>  <SCORE.RESTR.CAVITY>
0

>  <SCORE.RESTR.norm>
0

>  <SCORE.SYSTEM>
-19.0839

>  <SCORE.SYSTEM.CONST>
0

>  <SCORE.SYSTEM.DIHEDRAL>
4.12921

>  <SCORE.SYSTEM.POLAR>
-3.03962

>  <SCORE.SYSTEM.SOLV>
0.0838321

>  <SCORE.SYSTEM.VDW>
-3.99487

>  <SCORE.SYSTEM.norm>
-1.59032

>  <SCORE.heavy>
12

>  <SCORE.norm>
-4.61571

$$$$
P137017648
 OpenBabel12072022113D
libRbt.so/2013.1/901 2013/11/27
 15 16  0  0  0  0  0  0  0  0999 V2000
  -25.2880   16.2280  -16.2619 C   0  0  0  0  0  0  0  0  0  0  0  0
  -26.4346   15.6191  -16.8272 C   0  0  0  0  0  0  0  0  0  0  0  0
  -27.5283   16.2182  -16.2328 C   0  0  0  0  0  0  0  0  0  0  0  0
  -27.1057   17.1438  -15.3156 O   0  0  0  0  0  0  0  0  0  0  0  0
  -25.7483   17.1501  -15.3524 C   0  0  0  0  0  0  0  0  0  0  0  0
  -29.0021   16.0407  -16.3731 C   0  0  2  0  0  0  0  0  0  0  0  0
  -29.8267   16.9817  -15.5832 C   0  0  0  0  0  0  0  0  0  0  0  0
  -30.6703   18.0083  -15.9043 C   0  0  0  0  0  0  0  0  0  0  0  0
  -31.1638   18.5231  -14.7718 N   0  0  0  0  0  0  0  0  0  0  0  0
  -30.6040   17.7962  -13.7725 N   0  5  0  0  0  0  0  0  0  0  0  0
  -29.7846   16.8342  -14.2356 N   0  0  0  0  0  0  0  0  0  0  0  0
  -29.4187   14.6563  -15.9663 N   0  3  0  0  0  0  0  0  0  0  0  0
  -29.0386   14.0646  -16.7388 H   0  0  0  0  0  0  0  0  0  0  0  0
  -29.0812   14.3554  -15.0589 H   0  0  0  0  0  0  0  0  0  0  0  0
  -30.4356   14.5926  -16.0596 H   0  0  0  0  0  0  0  0  0  0  0  0
  1  2  1  0  0  0  0
  1  5  2  0  0  0  0
  2  3  2  0  0  0  0
  3  4  1  0  0  0  0
  4  5  1  0  0  0  0
  6  7  1  0  0  0  0
  6 12  1  1  0  0  0
  6  3  1  0  0  0  0
  7  8  1  0  0  0  0
  7 11  2  0  0  0  0
  8  9  2  0  0  0  0
  9 10  1  0  0  0  0
 10 11  1  0  0  0  0
 12 13  1  0  0  0  0
 12 14  1  0  0  0  0
 12 15  1  0  0  0  0
M  CHG  2  10  -1  12   1
M  END
>  <CHROM.0>
-57.90932070,-61.95777982,-63.69301122,-43.14223450,-175.89725359,-63.29553616
-66.38522607,-60.34673361,-168.79264053

>  <CHROM.1>
112.32805743,-70.64493506,-176.10365285,-28.57881498,16.73526347,-15.52771265
-0.40180267,0.10082090,0.51787849

>  <Name>
P137017648

>  <RI>
0

>  <Rbt.Current_Directory>
/home/fstefaniak/projects/zuza/docking/adenine/4TZX

>  <Rbt.Executable>
rbdock ($Id: //depot/dev/client3/rdock/2013.1/src/exe/rbdock.cxx#4 $)

>  <Rbt.Library>
libRbt.so (2013.1, Build901 2013/11/27)

>  <Rbt.Parameter_File>
/home/fstefaniak/progs/rDock//data/scripts/dock_solv.prm

>  <Rbt.Receptor>
4tzx.prm

>  <SCORE>
-55.1003

>  <SCORE.INTER>
-33.0056

>  <SCORE.INTER.CONST>
1

>  <SCORE.INTER.POLAR>
-4.49623

>  <SCORE.INTER.ROT>
2

>  <SCORE.INTER.SOLV>
19.6172

>  <SCORE.INTER.VDW>
-18.4887

>  <SCORE.INTER.norm>
-2.75046

>  <SCORE.INTRA>
-0.797408

>  <SCORE.INTRA.DIHEDRAL>
-1.75262

>  <SCORE.INTRA.DIHEDRAL.0>
4.14095

>  <SCORE.INTRA.POLAR>
0.571428

>  <SCORE.INTRA.POLAR.0>
-0.571428

>  <SCORE.INTRA.REPUL>
0

>  <SCORE.INTRA.REPUL.0>
0

>  <SCORE.INTRA.SOLV>
-1.23255

>  <SCORE.INTRA.SOLV.lig_0>
-31.3548

>  <SCORE.INTRA.VDW>
-1.24768

>  <SCORE.INTRA.VDW.0>
-0.286063

>  <SCORE.INTRA.norm>
-0.0664506

>  <SCORE.RESTR>
0

>  <SCORE.RESTR.CAVITY>
0

>  <SCORE.RESTR.norm>
0

>  <SCORE.SYSTEM>
-21.2974

>  <SCORE.SYSTEM.CONST>
0

>  <SCORE.SYSTEM.DIHEDRAL>
4.3652

>  <SCORE.SYSTEM.POLAR>
-3.06404

>  <SCORE.SYSTEM.SOLV>
0.00345191

>  <SCORE.SYSTEM.VDW>
-5.441

>  <SCORE.SYSTEM.norm>
-1.77478

>  <SCORE.heavy>
12

>  <SCORE.norm>
-4.5917

$$$$
P137017648
 OpenBabel12072022113D
libRbt.so/2013.1/901 2013/11/27
 15 16  0  0  0  0  0  0  0  0999 V2000
  -25.2833   16.2976  -16.3050 C   0  0  0  0  0  0  0  0  0  0  0  0
  -26.4258   15.6854  -16.8750 C   0  0  0  0  0  0  0  0  0  0  0  0
  -27.5224   16.2437  -16.2470 C   0  0  0  0  0  0  0  0  0  0  0  0
  -27.1047   17.1469  -15.3055 O   0  0  0  0  0  0  0  0  0  0  0  0
  -25.7484   17.1805  -15.3598 C   0  0  0  0  0  0  0  0  0  0  0  0
  -28.9944   16.0425  -16.3739 C   0  0  2  0  0  0  0  0  0  0  0  0
  -29.8269   16.9767  -15.5842 C   0  0  0  0  0  0  0  0  0  0  0  0
  -30.6670   18.0063  -15.9050 C   0  0  0  0  0  0  0  0  0  0  0  0
  -31.1721   18.5112  -14.7731 N   0  0  0  0  0  0  0  0  0  0  0  0
  -30.6228   17.7754  -13.7745 N   0  5  0  0  0  0  0  0  0  0  0  0
  -29.7988   16.8173  -14.2376 N   0  0  0  0  0  0  0  0  0  0  0  0
  -29.3862   14.6550  -15.9534 N   0  3  0  0  0  0  0  0  0  0  0  0
  -28.9980   14.0628  -16.7214 H   0  0  0  0  0  0  0  0  0  0  0  0
  -29.0414   14.3682  -15.0442 H   0  0  0  0  0  0  0  0  0  0  0  0
  -30.4022   14.5732  -16.0433 H   0  0  0  0  0  0  0  0  0  0  0  0
  1  2  1  0  0  0  0
  1  5  2  0  0  0  0
  2  3  2  0  0  0  0
  3  4  1  0  0  0  0
  4  5  1  0  0  0  0
  6  7  1  0  0  0  0
  6 12  1  1  0  0  0
  6  3  1  0  0  0  0
  7  8  1  0  0  0  0
  7 11  2  0  0  0  0
  8  9  2  0  0  0  0
  9 10  1  0  0  0  0
 10 11  1  0  0  0  0
 12 13  1  0  0  0  0
 12 14  1  0  0  0  0
 12 15  1  0  0  0  0
M  CHG  2  10  -1  12   1
M  END
>  <CHROM.0>
-56.74550024,-58.60636696,-65.64623245,-42.82596382,-60.73543628,-62.70841814
-66.97860064,-176.47895881,-169.38315454

>  <CHROM.1>
110.65608622,-70.29779647,-173.77054242,-28.57642383,16.74585807,-15.53479707
-0.39246965,0.11448261,0.51398928

>  <Name>
P137017648

>  <RI>
0

>  <Rbt.Current_Directory>
/home/fstefaniak/projects/zuza/docking/adenine/4TZX

>  <Rbt.Executable>
rbdock ($Id: //depot/dev/client3/rdock/2013.1/src/exe/rbdock.cxx#4 $)

>  <Rbt.Library>
libRbt.so (2013.1, Build901 2013/11/27)

>  <Rbt.Parameter_File>
/home/fstefaniak/progs/rDock//data/scripts/dock_solv.prm

>  <Rbt.Receptor>
4tzx.prm

>  <SCORE>
-54.9312

>  <SCORE.INTER>
-33.0776

>  <SCORE.INTER.CONST>
1

>  <SCORE.INTER.POLAR>
-4.52271

>  <SCORE.INTER.ROT>
2

>  <SCORE.INTER.SOLV>
19.4972

>  <SCORE.INTER.VDW>
-18.4084

>  <SCORE.INTER.norm>
-2.75646

>  <SCORE.INTRA>
-0.794051

>  <SCORE.INTRA.DIHEDRAL>
-1.75703

>  <SCORE.INTRA.DIHEDRAL.0>
4.14095

>  <SCORE.INTRA.POLAR>
0.571428

>  <SCORE.INTRA.POLAR.0>
-0.571428

>  <SCORE.INTRA.REPUL>
0

>  <SCORE.INTRA.REPUL.0>
0

>  <SCORE.INTRA.SOLV>
-1.21758

>  <SCORE.INTRA.SOLV.lig_0>
-31.3548

>  <SCORE.INTRA.VDW>
-1.2496

>  <SCORE.INTRA.VDW.0>
-0.286063

>  <SCORE.INTRA.norm>
-0.0661709

>  <SCORE.RESTR>
0

>  <SCORE.RESTR.CAVITY>
0

>  <SCORE.RESTR.norm>
0

>  <SCORE.SYSTEM>
-21.0596

>  <SCORE.SYSTEM.CONST>
0

>  <SCORE.SYSTEM.DIHEDRAL>
4.45818

>  <SCORE.SYSTEM.POLAR>
-3.06553

>  <SCORE.SYSTEM.SOLV>
0.0569832

>  <SCORE.SYSTEM.VDW>
-5.32631

>  <SCORE.SYSTEM.norm>
-1.75496

>  <SCORE.heavy>
12

>  <SCORE.norm>
-4.5776

$$$$
P137017648
 OpenBabel12072022113D
libRbt.so/2013.1/901 2013/11/27
 15 16  0  0  0  0  0  0  0  0999 V2000
  -25.2818   16.3082  -16.3368 C   0  0  0  0  0  0  0  0  0  0  0  0
  -26.4295   15.7132  -16.9147 C   0  0  0  0  0  0  0  0  0  0  0  0
  -27.5204   16.2536  -16.2617 C   0  0  0  0  0  0  0  0  0  0  0  0
  -27.0943   17.1291  -15.2981 O   0  0  0  0  0  0  0  0  0  0  0  0
  -25.7384   17.1637  -15.3628 C   0  0  0  0  0  0  0  0  0  0  0  0
  -28.9935   16.0568  -16.3821 C   0  0  2  0  0  0  0  0  0  0  0  0
  -29.8197   16.9919  -15.5869 C   0  0  0  0  0  0  0  0  0  0  0  0
  -30.6715   18.0134  -15.9025 C   0  0  0  0  0  0  0  0  0  0  0  0
  -31.1621   18.5241  -14.7669 N   0  0  0  0  0  0  0  0  0  0  0  0
  -30.5923   17.7999  -13.7712 N   0  5  0  0  0  0  0  0  0  0  0  0
  -29.7693   16.8435  -14.2396 N   0  0  0  0  0  0  0  0  0  0  0  0
  -29.3873   14.6696  -15.9622 N   0  3  0  0  0  0  0  0  0  0  0  0
  -29.0086   14.0782  -16.7356 H   0  0  0  0  0  0  0  0  0  0  0  0
  -29.0354   14.3786  -15.0571 H   0  0  0  0  0  0  0  0  0  0  0  0
  -30.4044   14.5923  -16.0432 H   0  0  0  0  0  0  0  0  0  0  0  0
  1  2  1  0  0  0  0
  1  5  2  0  0  0  0
  2  3  2  0  0  0  0
  3  4  1  0  0  0  0
  4  5  1  0  0  0  0
  6  7  1  0  0  0  0
  6 12  1  1  0  0  0
  6  3  1  0  0  0  0
  7  8  1  0  0  0  0
  7 11  2  0  0  0  0
  8  9  2  0  0  0  0
  9 10  1  0  0  0  0
 10 11  1  0  0  0  0
 12 13  1  0  0  0  0
 12 14  1  0  0  0  0
 12 15  1  0  0  0  0
M  CHG  2  10  -1  12   1
M  END
>  <CHROM.0>
-60.44630049,-59.84846039,-43.46403107,-43.37852432,-56.57308432,-60.15186043
-65.43941376,57.78634967,-168.45220039

>  <CHROM.1>
111.65852706,-70.57361571,-172.20431414,-28.56855211,16.75629728,-15.54200030
-0.39897457,0.11096745,0.52894741

>  <Name>
P137017648

>  <RI>
0

>  <Rbt.Current_Directory>
/home/fstefaniak/projects/zuza/docking/adenine/4TZX

>  <Rbt.Executable>
rbdock ($Id: //depot/dev/client3/rdock/2013.1/src/exe/rbdock.cxx#4 $)

>  <Rbt.Library>
libRbt.so (2013.1, Build901 2013/11/27)

>  <Rbt.Parameter_File>
/home/fstefaniak/progs/rDock//data/scripts/dock_solv.prm

>  <Rbt.Receptor>
4tzx.prm

>  <SCORE>
-53.5762

>  <SCORE.INTER>
-33.002

>  <SCORE.INTER.CONST>
1

>  <SCORE.INTER.POLAR>
-4.5121

>  <SCORE.INTER.ROT>
2

>  <SCORE.INTER.SOLV>
19.511

>  <SCORE.INTER.VDW>
-18.398

>  <SCORE.INTER.norm>
-2.75016

>  <SCORE.INTRA>
-0.819196

>  <SCORE.INTRA.DIHEDRAL>
-1.80037

>  <SCORE.INTRA.DIHEDRAL.0>
4.14095

>  <SCORE.INTRA.POLAR>
0.571428

>  <SCORE.INTRA.POLAR.0>
-0.571428

>  <SCORE.INTRA.REPUL>
0

>  <SCORE.INTRA.REPUL.0>
0

>  <SCORE.INTRA.SOLV>
-1.21974

>  <SCORE.INTRA.SOLV.lig_0>
-31.3548

>  <SCORE.INTRA.VDW>
-1.252

>  <SCORE.INTRA.VDW.0>
-0.286063

>  <SCORE.INTRA.norm>
-0.0682663

>  <SCORE.RESTR>
0

>  <SCORE.RESTR.CAVITY>
0

>  <SCORE.RESTR.norm>
0

>  <SCORE.SYSTEM>
-19.755

>  <SCORE.SYSTEM.CONST>
0

>  <SCORE.SYSTEM.DIHEDRAL>
5.33762

>  <SCORE.SYSTEM.POLAR>
-3.19816

>  <SCORE.SYSTEM.SOLV>
0.0503047

>  <SCORE.SYSTEM.VDW>
-4.30545

>  <SCORE.SYSTEM.norm>
-1.64625

>  <SCORE.heavy>
12

>  <SCORE.norm>
-4.46468

$$$$
P137104234
 OpenBabel12072022113D
libRbt.so/2013.1/901 2013/11/27
 17 17  0  0  0  0  0  0  0  0999 V2000
  -28.2755   14.3638  -16.2308 C   0  0  0  0  0  0  0  0  0  0  0  0
  -27.8724   15.8048  -16.5452 C   0  0  2  0  0  0  0  0  0  0  0  0
  -26.4161   16.1054  -16.1445 C   0  0  0  0  0  0  0  0  0  0  0  0
  -26.1323   16.7446  -15.1332 O   0  0  0  0  0  0  0  0  0  0  0  0
  -25.4259   15.5232  -16.8806 N   0  0  0  0  0  0  0  0  0  0  0  0
  -28.8197   16.7480  -15.8738 N   0  0  0  0  0  0  0  0  0  0  0  0
  -30.1070   16.7469  -16.5910 C   0  0  1  0  0  0  0  0  0  0  0  0
  -30.9187   17.9812  -16.1166 C   0  0  0  0  0  0  0  0  0  0  0  0
  -30.2105   18.8036  -17.2149 C   0  0  1  0  0  0  0  0  0  0  0  0
  -29.9467   17.4759  -17.9505 C   0  0  0  0  0  0  0  0  0  0  0  0
  -31.1022   19.7097  -17.9502 N   0  3  0  0  0  0  0  0  0  0  0  0
  -30.5957   20.3159  -18.6088 H   0  0  0  0  0  0  0  0  0  0  0  0
  -31.8076   19.1934  -18.4913 H   0  0  0  0  0  0  0  0  0  0  0  0
  -31.6127   20.3306  -17.3077 H   0  0  0  0  0  0  0  0  0  0  0  0
  -25.5911   15.0521  -17.7585 H   0  0  0  0  0  0  0  0  0  0  0  0
  -24.4710   15.7602  -16.6415 H   0  0  0  0  0  0  0  0  0  0  0  0
  -28.9048   16.4064  -14.9114 H   0  0  0  0  0  0  0  0  0  0  0  0
  2  3  1  0  0  0  0
  2  6  1  0  0  0  0
  2  1  1  1  0  0  0
  3  4  2  0  0  0  0
  3  5  1  0  0  0  0
  5 15  1  0  0  0  0
  5 16  1  0  0  0  0
  6 17  1  0  0  0  0
  7  6  1  1  0  0  0
  7  8  1  0  0  0  0
  7 10  1  0  0  0  0
  8  9  1  0  0  0  0
  9 10  1  0  0  0  0
  9 11  1  6  0  0  0
 11 12  1  0  0  0  0
 11 13  1  0  0  0  0
 11 14  1  0  0  0  0
M  CHG  1  11   1
M  END
>  <CHROM.0>
-55.69355705,-62.21475759,-66.15994871,-42.44046391,61.25499917,-67.58468846
-65.66291082,-63.06902334,-167.90820310

>  <CHROM.1>
-103.22616455,-74.12643026,-165.26109537,174.11748999,-28.64420913,16.93323886
-16.61055299,0.63539378,0.09931591,2.89780648

>  <Name>
P137104234

>  <RI>
0

>  <Rbt.Current_Directory>
/home/fstefaniak/projects/zuza/docking/adenine/4TZX

>  <Rbt.Executable>
rbdock ($Id: //depot/dev/client3/rdock/2013.1/src/exe/rbdock.cxx#4 $)

>  <Rbt.Library>
libRbt.so (2013.1, Build901 2013/11/27)

>  <Rbt.Parameter_File>
/home/fstefaniak/progs/rDock//data/scripts/dock_solv.prm

>  <Rbt.Receptor>
4tzx.prm

>  <SCORE>
-49.1519

>  <SCORE.INTER>
-29.187

>  <SCORE.INTER.CONST>
1

>  <SCORE.INTER.POLAR>
-3.21345

>  <SCORE.INTER.ROT>
3

>  <SCORE.INTER.SOLV>
22.3964

>  <SCORE.INTER.VDW>
-21.8119

>  <SCORE.INTER.norm>
-2.65336

>  <SCORE.INTRA>
0.262779

>  <SCORE.INTRA.DIHEDRAL>
-0.225041

>  <SCORE.INTRA.DIHEDRAL.0>
3.16425

>  <SCORE.INTRA.POLAR>
0

>  <SCORE.INTRA.POLAR.0>
0

>  <SCORE.INTRA.REPUL>
0

>  <SCORE.INTRA.REPUL.0>
0

>  <SCORE.INTRA.SOLV>
-0.748543

>  <SCORE.INTRA.SOLV.lig_0>
-34.9228

>  <SCORE.INTRA.VDW>
0.749571

>  <SCORE.INTRA.VDW.0>
-0.0859856

>  <SCORE.INTRA.norm>
0.023889

>  <SCORE.RESTR>
0

>  <SCORE.RESTR.CAVITY>
0

>  <SCORE.RESTR.norm>
0

>  <SCORE.SYSTEM>
-20.2277

>  <SCORE.SYSTEM.CONST>
0

>  <SCORE.SYSTEM.DIHEDRAL>
4.87701

>  <SCORE.SYSTEM.POLAR>
-3.08912

>  <SCORE.SYSTEM.SOLV>
-0.0406289

>  <SCORE.SYSTEM.VDW>
-4.80021

>  <SCORE.SYSTEM.norm>
-1.83888

>  <SCORE.heavy>
11

>  <SCORE.norm>
-4.46836

$$$$
P137104234
 OpenBabel12072022113D
libRbt.so/2013.1/901 2013/11/27
 17 17  0  0  0  0  0  0  0  0999 V2000
  -30.7414   17.4272  -15.6664 C   0  0  0  0  0  0  0  0  0  0  0  0
  -29.6441   17.5998  -16.7172 C   0  0  2  0  0  0  0  0  0  0  0  0
  -30.1608   18.2876  -17.9946 C   0  0  0  0  0  0  0  0  0  0  0  0
  -30.3208   17.6770  -19.0499 O   0  0  0  0  0  0  0  0  0  0  0  0
  -30.5689   19.5853  -17.8918 N   0  0  0  0  0  0  0  0  0  0  0  0
  -29.0377   16.2690  -17.0317 N   0  0  0  0  0  0  0  0  0  0  0  0
  -28.1975   15.8314  -15.9029 C   0  0  1  0  0  0  0  0  0  0  0  0
  -27.9167   14.3154  -16.0764 C   0  0  0  0  0  0  0  0  0  0  0  0
  -26.6988   14.6940  -16.9467 C   0  0  1  0  0  0  0  0  0  0  0  0
  -26.7028   16.0651  -16.2444 C   0  0  0  0  0  0  0  0  0  0  0  0
  -25.4955   13.8998  -16.6670 N   0  3  0  0  0  0  0  0  0  0  0  0
  -25.2643   13.2490  -17.4289 H   0  0  0  0  0  0  0  0  0  0  0  0
  -24.6723   14.4966  -16.5150 H   0  0  0  0  0  0  0  0  0  0  0  0
  -25.6148   13.3318  -15.8172 H   0  0  0  0  0  0  0  0  0  0  0  0
  -30.3958   20.1586  -17.0785 H   0  0  0  0  0  0  0  0  0  0  0  0
  -30.8646   20.0465  -18.7433 H   0  0  0  0  0  0  0  0  0  0  0  0
  -29.8314   15.6425  -17.1979 H   0  0  0  0  0  0  0  0  0  0  0  0
  2  3  1  0  0  0  0
  2  6  1  0  0  0  0
  2  1  1  1  0  0  0
  3  4  2  0  0  0  0
  3  5  1  0  0  0  0
  5 15  1  0  0  0  0
  5 16  1  0  0  0  0
  6 17  1  0  0  0  0
  7  6  1  6  0  0  0
  7  8  1  0  0  0  0
  7 10  1  0  0  0  0
  8  9  1  0  0  0  0
  9 10  1  0  0  0  0
  9 11  1  1  0  0  0
 11 12  1  0  0  0  0
 11 13  1  0  0  0  0
 11 14  1  0  0  0  0
M  CHG  1  11   1
M  END
>  <CHROM.0>
-60.77986953,174.22710120,-64.23783143,-41.80150003,-59.30977219,-65.93066537
-63.27341640,-54.51541311,-169.26155017

>  <CHROM.1>
-107.68618100,-72.78450697,164.29966463,109.62893096,-28.67021402,16.50675458
-16.94650958,2.64428597,0.66322553,-1.15443906

>  <Name>
P137104234

>  <RI>
0

>  <Rbt.Current_Directory>
/home/fstefaniak/projects/zuza/docking/adenine/4TZX

>  <Rbt.Executable>
rbdock ($Id: //depot/dev/client3/rdock/2013.1/src/exe/rbdock.cxx#4 $)

>  <Rbt.Library>
libRbt.so (2013.1, Build901 2013/11/27)

>  <Rbt.Parameter_File>
/home/fstefaniak/progs/rDock//data/scripts/dock_solv.prm

>  <Rbt.Receptor>
4tzx.prm

>  <SCORE>
-48.4968

>  <SCORE.INTER>
-29.076

>  <SCORE.INTER.CONST>
1

>  <SCORE.INTER.POLAR>
-2.95892

>  <SCORE.INTER.ROT>
3

>  <SCORE.INTER.SOLV>
18.008

>  <SCORE.INTER.VDW>
-21.1236

>  <SCORE.INTER.norm>
-2.64327

>  <SCORE.INTRA>
1.24852

>  <SCORE.INTRA.DIHEDRAL>
1.57697

>  <SCORE.INTRA.DIHEDRAL.0>
3.16425

>  <SCORE.INTRA.POLAR>
0

>  <SCORE.INTRA.POLAR.0>
0

>  <SCORE.INTRA.REPUL>
0

>  <SCORE.INTRA.REPUL.0>
0

>  <SCORE.INTRA.SOLV>
-0.754538

>  <SCORE.INTRA.SOLV.lig_0>
-34.9228

>  <SCORE.INTRA.VDW>
0.837308

>  <SCORE.INTRA.VDW.0>
-0.0859856

>  <SCORE.INTRA.norm>
0.113502

>  <SCORE.RESTR>
0

>  <SCORE.RESTR.CAVITY>
0

>  <SCORE.RESTR.norm>
0

>  <SCORE.SYSTEM>
-20.6694

>  <SCORE.SYSTEM.CONST>
0

>  <SCORE.SYSTEM.DIHEDRAL>
4.69545

>  <SCORE.SYSTEM.POLAR>
-3.07137

>  <SCORE.SYSTEM.SOLV>
0.177418

>  <SCORE.SYSTEM.VDW>
-5.16594

>  <SCORE.SYSTEM.norm>
-1.87903

>  <SCORE.heavy>
11

>  <SCORE.norm>
-4.4088

$$$$
P137104234
 OpenBabel12072022113D
libRbt.so/2013.1/901 2013/11/27
 17 17  0  0  0  0  0  0  0  0999 V2000
  -28.3342   14.4109  -16.1663 C   0  0  0  0  0  0  0  0  0  0  0  0
  -27.8669   15.8124  -16.5604 C   0  0  2  0  0  0  0  0  0  0  0  0
  -26.4012   16.0727  -16.1656 C   0  0  0  0  0  0  0  0  0  0  0  0
  -26.0960   16.7146  -15.1622 O   0  0  0  0  0  0  0  0  0  0  0  0
  -25.4308   15.4519  -16.8964 N   0  0  0  0  0  0  0  0  0  0  0  0
  -28.7761   16.8331  -15.9530 N   0  0  0  0  0  0  0  0  0  0  0  0
  -30.0719   16.8183  -16.6545 C   0  0  1  0  0  0  0  0  0  0  0  0
  -30.9025   18.0273  -16.1485 C   0  0  0  0  0  0  0  0  0  0  0  0
  -30.2248   18.8831  -17.2404 C   0  0  1  0  0  0  0  0  0  0  0  0
  -29.9433   17.5742  -18.0027 C   0  0  0  0  0  0  0  0  0  0  0  0
  -31.1436   19.7836  -17.9487 N   0  3  0  0  0  0  0  0  0  0  0  0
  -31.7684   19.2840  -18.5949 H   0  0  0  0  0  0  0  0  0  0  0  0
  -31.7378   20.3113  -17.2964 H   0  0  0  0  0  0  0  0  0  0  0  0
  -30.6272   20.4746  -18.5097 H   0  0  0  0  0  0  0  0  0  0  0  0
  -25.6121   14.9758  -17.7685 H   0  0  0  0  0  0  0  0  0  0  0  0
  -24.4686   15.6622  -16.6615 H   0  0  0  0  0  0  0  0  0  0  0  0
  -28.8593   16.5683  -14.9665 H   0  0  0  0  0  0  0  0  0  0  0  0
  2  3  1  0  0  0  0
  2  6  1  0  0  0  0
  2  1  1  1  0  0  0
  3  4  2  0  0  0  0
  3  5  1  0  0  0  0
  5 15  1  0  0  0  0
  5 16  1  0  0  0  0
  6 17  1  0  0  0  0
  7  6  1  1  0  0  0
  7  8  1  0  0  0  0
  7 10  1  0  0  0  0
  8  9  1  0  0  0  0
  9 10  1  0  0  0  0
  9 11  1  6  0  0  0
 11 12  1  0  0  0  0
 11 13  1  0  0  0  0
 11 14  1  0  0  0  0
M  CHG  1  11   1
M  END
>  <CHROM.0>
-57.00478589,-57.82024484,-64.27900793,-41.80698172,-55.26424765,59.40382178
-63.29784151,60.51366347,-168.70393285

>  <CHROM.1>
-100.41127394,-72.48574898,-171.38856160,-72.88135199,-28.64190774,16.96717116
-16.63374700,0.64959091,0.09218483,2.88961939

>  <Name>
P137104234

>  <RI>
0

>  <Rbt.Current_Directory>
/home/fstefaniak/projects/zuza/docking/adenine/4TZX

>  <Rbt.Executable>
rbdock ($Id: //depot/dev/client3/rdock/2013.1/src/exe/rbdock.cxx#4 $)

>  <Rbt.Library>
libRbt.so (2013.1, Build901 2013/11/27)

>  <Rbt.Parameter_File>
/home/fstefaniak/progs/rDock//data/scripts/dock_solv.prm

>  <Rbt.Receptor>
4tzx.prm

>  <SCORE>
-48.2965

>  <SCORE.INTER>
-29.544

>  <SCORE.INTER.CONST>
1

>  <SCORE.INTER.POLAR>
-3.36941

>  <SCORE.INTER.ROT>
3

>  <SCORE.INTER.SOLV>
22.6942

>  <SCORE.INTER.VDW>
-21.6294

>  <SCORE.INTER.norm>
-2.68582

>  <SCORE.INTRA>
0.188656

>  <SCORE.INTRA.DIHEDRAL>
-0.1266

>  <SCORE.INTRA.DIHEDRAL.0>
3.16425

>  <SCORE.INTRA.POLAR>
0

>  <SCORE.INTRA.POLAR.0>
0

>  <SCORE.INTRA.REPUL>
0

>  <SCORE.INTRA.REPUL.0>
0

>  <SCORE.INTRA.SOLV>
-0.770475

>  <SCORE.INTRA.SOLV.lig_0>
-34.9228

>  <SCORE.INTRA.VDW>
0.637193

>  <SCORE.INTRA.VDW.0>
-0.0859856

>  <SCORE.INTRA.norm>
0.0171505

>  <SCORE.RESTR>
0

>  <SCORE.RESTR.CAVITY>
0

>  <SCORE.RESTR.norm>
0

>  <SCORE.SYSTEM>
-18.9412

>  <SCORE.SYSTEM.CONST>
0

>  <SCORE.SYSTEM.DIHEDRAL>
4.45812

>  <SCORE.SYSTEM.POLAR>
-3.09835

>  <SCORE.SYSTEM.SOLV>
-0.0931357

>  <SCORE.SYSTEM.VDW>
-3.75461

>  <SCORE.SYSTEM.norm>
-1.72192

>  <SCORE.heavy>
11

>  <SCORE.norm>
-4.3906

$$$$
P137159987
 OpenBabel12072022113D
libRbt.so/2013.1/901 2013/11/27
 14 15  0  0  0  0  0  0  0  0999 V2000
  -28.2768   15.7667  -15.6818 C   0  0  0  0  0  0  0  0  0  0  0  0
  -29.4073   15.2007  -16.5415 C   0  0  0  0  0  0  0  0  0  0  0  0
  -30.1866   16.4603  -16.9149 C   0  0  1  0  0  0  0  0  0  0  0  0
  -30.9528   17.0077  -15.6993 C   0  0  1  0  0  0  0  0  0  0  0  0
  -29.8104   17.5703  -14.8379 C   0  0  0  0  0  0  0  0  0  0  0  0
  -28.5839   17.2627  -15.6968 C   0  0  2  0  0  0  0  0  0  0  0  0
  -29.1125   17.4301  -17.0343 O   0  0  0  0  0  0  0  0  0  0  0  0
  -31.8878   18.0544  -16.0908 N   0  0  0  0  0  0  0  0  0  0  0  0
  -31.5879   18.8942  -17.1207 C   0  0  0  0  0  0  0  0  0  0  0  0
  -30.6388   19.6609  -17.1634 O   0  0  0  0  0  0  0  0  0  0  0  0
  -32.4794   18.7947  -18.1374 N   0  0  0  0  0  0  0  0  0  0  0  0
  -32.8689   17.8210  -16.0087 H   0  0  0  0  0  0  0  0  0  0  0  0
  -32.6000   19.6181  -18.7084 H   0  0  0  0  0  0  0  0  0  0  0  0
  -32.3961   17.9287  -18.6552 H   0  0  0  0  0  0  0  0  0  0  0  0
  1  2  1  0  0  0  0
  3  2  1  1  0  0  0
  3  4  1  0  0  0  0
  3  7  1  0  0  0  0
  4  5  1  0  0  0  0
  4  8  1  6  0  0  0
  5  6  1  0  0  0  0
  6  1  1  6  0  0  0
  6  7  1  0  0  0  0
  8  9  1  0  0  0  0
  8 12  1  0  0  0  0
  9 10  2  0  0  0  0
  9 11  1  0  0  0  0
 11 13  1  0  0  0  0
 11 14  1  0  0  0  0
M  END
>  <CHROM.0>
-57.08315280,175.62111119,-63.88172747,52.69104312,-174.25604546,-55.26861701
-66.81771509,-53.87898620,-169.08284983

>  <CHROM.1>
-33.45462873,-61.56259110,152.62069009,-30.29096453,17.50243288,-16.48742461
-0.65357171,-0.53548394,0.10891662

>  <Name>
P137159987

>  <RI>
0

>  <Rbt.Current_Directory>
/home/fstefaniak/projects/zuza/docking/adenine/4TZX

>  <Rbt.Executable>
rbdock ($Id: //depot/dev/client3/rdock/2013.1/src/exe/rbdock.cxx#4 $)

>  <Rbt.Library>
libRbt.so (2013.1, Build901 2013/11/27)

>  <Rbt.Parameter_File>
/home/fstefaniak/progs/rDock//data/scripts/dock_solv.prm

>  <Rbt.Receptor>
4tzx.prm

>  <SCORE>
-47.4681

>  <SCORE.INTER>
-30.8178

>  <SCORE.INTER.CONST>
1

>  <SCORE.INTER.POLAR>
-5.29681

>  <SCORE.INTER.ROT>
3

>  <SCORE.INTER.SOLV>
13.0457

>  <SCORE.INTER.VDW>
-12.8377

>  <SCORE.INTER.norm>
-2.80161

>  <SCORE.INTRA>
1.13516

>  <SCORE.INTRA.DIHEDRAL>
1.31241

>  <SCORE.INTRA.DIHEDRAL.0>
1.26077

>  <SCORE.INTRA.POLAR>
0

>  <SCORE.INTRA.POLAR.0>
0

>  <SCORE.INTRA.REPUL>
0

>  <SCORE.INTRA.REPUL.0>
0

>  <SCORE.INTRA.SOLV>
1.17394

>  <SCORE.INTRA.SOLV.lig_0>
-14.2998

>  <SCORE.INTRA.VDW>
-0.108019

>  <SCORE.INTRA.VDW.0>
-0.518619

>  <SCORE.INTRA.norm>
0.103196

>  <SCORE.RESTR>
0

>  <SCORE.RESTR.CAVITY>
0

>  <SCORE.RESTR.norm>
0

>  <SCORE.SYSTEM>
-17.7855

>  <SCORE.SYSTEM.CONST>
0

>  <SCORE.SYSTEM.DIHEDRAL>
3.7294

>  <SCORE.SYSTEM.POLAR>
-2.52189

>  <SCORE.SYSTEM.SOLV>
-0.0581867

>  <SCORE.SYSTEM.VDW>
-4.67446

>  <SCORE.SYSTEM.norm>
-1.61687

>  <SCORE.heavy>
11

>  <SCORE.norm>
-4.31529

$$$$
P137159987
 OpenBabel12072022113D
libRbt.so/2013.1/901 2013/11/27
 14 15  0  0  0  0  0  0  0  0999 V2000
  -30.4274   17.9550  -18.6148 C   0  0  0  0  0  0  0  0  0  0  0  0
  -31.4428   18.7773  -17.8208 C   0  0  0  0  0  0  0  0  0  0  0  0
  -30.8944   18.6761  -16.3987 C   0  0  1  0  0  0  0  0  0  0  0  0
  -31.1118   17.2640  -15.8299 C   0  0  1  0  0  0  0  0  0  0  0  0
  -30.0921   16.4426  -16.6355 C   0  0  0  0  0  0  0  0  0  0  0  0
  -29.4549   17.5109  -17.5241 C   0  0  2  0  0  0  0  0  0  0  0  0
  -29.4641   18.6645  -16.6492 O   0  0  0  0  0  0  0  0  0  0  0  0
  -30.8219   17.2182  -14.4027 N   0  0  0  0  0  0  0  0  0  0  0  0
  -29.5692   17.4978  -13.9462 C   0  0  0  0  0  0  0  0  0  0  0  0
  -28.5287   17.3115  -14.5570 O   0  0  0  0  0  0  0  0  0  0  0  0
  -29.5864   18.0254  -12.6973 N   0  0  0  0  0  0  0  0  0  0  0  0
  -31.5705   17.5190  -13.7920 H   0  0  0  0  0  0  0  0  0  0  0  0
  -28.9933   17.5773  -12.0146 H   0  0  0  0  0  0  0  0  0  0  0  0
  -29.5477   19.0370  -12.6931 H   0  0  0  0  0  0  0  0  0  0  0  0
  1  2  1  0  0  0  0
  3  2  1  6  0  0  0
  3  4  1  0  0  0  0
  3  7  1  0  0  0  0
  4  5  1  0  0  0  0
  4  8  1  1  0  0  0
  5  6  1  0  0  0  0
  6  1  1  6  0  0  0
  6  7  1  0  0  0  0
  8  9  1  0  0  0  0
  8 12  1  0  0  0  0
  9 10  2  0  0  0  0
  9 11  1  0  0  0  0
 11 13  1  0  0  0  0
 11 14  1  0  0  0  0
M  END
>  <CHROM.0>
-56.35697549,-62.86723609,-61.36228284,-43.23212660,-58.93751811,-58.02313557
-63.17635060,-59.24294786,-167.54018596

>  <CHROM.1>
-61.98637572,-29.28245966,127.79589820,-30.09660640,17.77209477,-15.86153265
-1.81007459,-0.35505920,1.60119642

>  <Name>
P137159987

>  <RI>
0

>  <Rbt.Current_Directory>
/home/fstefaniak/projects/zuza/docking/adenine/4TZX

>  <Rbt.Executable>
rbdock ($Id: //depot/dev/client3/rdock/2013.1/src/exe/rbdock.cxx#4 $)

>  <Rbt.Library>
libRbt.so (2013.1, Build901 2013/11/27)

>  <Rbt.Parameter_File>
/home/fstefaniak/progs/rDock//data/scripts/dock_solv.prm

>  <Rbt.Receptor>
4tzx.prm

>  <SCORE>
-45.9808

>  <SCORE.INTER>
-26.6752

>  <SCORE.INTER.CONST>
1

>  <SCORE.INTER.POLAR>
-3.41759

>  <SCORE.INTER.ROT>
3

>  <SCORE.INTER.SOLV>
13.5307

>  <SCORE.INTER.VDW>
-16.5017

>  <SCORE.INTER.norm>
-2.42502

>  <SCORE.INTRA>
1.59944

>  <SCORE.INTRA.DIHEDRAL>
0.124908

>  <SCORE.INTRA.DIHEDRAL.0>
1.26077

>  <SCORE.INTRA.POLAR>
0

>  <SCORE.INTRA.POLAR.0>
0

>  <SCORE.INTRA.REPUL>
0

>  <SCORE.INTRA.REPUL.0>
0

>  <SCORE.INTRA.SOLV>
1.10808

>  <SCORE.INTRA.SOLV.lig_0>
-14.2998

>  <SCORE.INTRA.VDW>
0.982942

>  <SCORE.INTRA.VDW.0>
-0.518619

>  <SCORE.INTRA.norm>
0.145403

>  <SCORE.RESTR>
0

>  <SCORE.RESTR.CAVITY>
0

>  <SCORE.RESTR.norm>
0

>  <SCORE.SYSTEM>
-20.905

>  <SCORE.SYSTEM.CONST>
0

>  <SCORE.SYSTEM.DIHEDRAL>
4.24735

>  <SCORE.SYSTEM.POLAR>
-3.08427

>  <SCORE.SYSTEM.SOLV>
0.213555

>  <SCORE.SYSTEM.VDW>
-5.14276

>  <SCORE.SYSTEM.norm>
-1.90046

>  <SCORE.heavy>
11

>  <SCORE.norm>
-4.18007

$$$$
P137159987
 OpenBabel12072022113D
libRbt.so/2013.1/901 2013/11/27
 14 15  0  0  0  0  0  0  0  0999 V2000
  -29.1173   17.4874  -13.7538 C   0  0  0  0  0  0  0  0  0  0  0  0
  -30.4289   18.0896  -13.2492 C   0  0  0  0  0  0  0  0  0  0  0  0
  -31.4037   17.7115  -14.3629 C   0  0  1  0  0  0  0  0  0  0  0  0
  -31.1355   18.5438  -15.6279 C   0  0  1  0  0  0  0  0  0  0  0  0
  -29.8140   17.9367  -16.1265 C   0  0  0  0  0  0  0  0  0  0  0  0
  -29.5446   16.8576  -15.0778 C   0  0  2  0  0  0  0  0  0  0  0  0
  -30.8861   16.4146  -14.7610 O   0  0  0  0  0  0  0  0  0  0  0  0
  -32.2006   18.3751  -16.6077 N   0  0  0  0  0  0  0  0  0  0  0  0
  -31.9779   18.6596  -17.9212 C   0  0  0  0  0  0  0  0  0  0  0  0
  -30.8942   18.9132  -18.4230 O   0  0  0  0  0  0  0  0  0  0  0  0
  -33.1205   18.6333  -18.6507 N   0  0  0  0  0  0  0  0  0  0  0  0
  -32.8293   17.5993  -16.4447 H   0  0  0  0  0  0  0  0  0  0  0  0
  -33.2706   19.4123  -19.2745 H   0  0  0  0  0  0  0  0  0  0  0  0
  -33.3136   17.7248  -19.0535 H   0  0  0  0  0  0  0  0  0  0  0  0
  1  2  1  0  0  0  0
  3  2  1  1  0  0  0
  3  4  1  0  0  0  0
  3  7  1  0  0  0  0
  4  5  1  0  0  0  0
  4  8  1  6  0  0  0
  5  6  1  0  0  0  0
  6  1  1  1  0  0  0
  6  7  1  0  0  0  0
  8  9  1  0  0  0  0
  8 12  1  0  0  0  0
  9 10  2  0  0  0  0
  9 11  1  0  0  0  0
 11 13  1  0  0  0  0
 11 14  1  0  0  0  0
M  END
>  <CHROM.0>
-57.02477975,-61.80698079,-49.47267908,-43.85501902,-58.56059779,-60.93625016
-70.49646060,-54.74934937,-169.08728803

>  <CHROM.1>
-159.09334416,8.99526425,132.96238157,-30.98867131,17.95943599,-15.92319921
-1.10939292,0.08320481,-1.30915195

>  <Name>
P137159987

>  <RI>
0

>  <Rbt.Current_Directory>
/home/fstefaniak/projects/zuza/docking/adenine/4TZX

>  <Rbt.Executable>
rbdock ($Id: //depot/dev/client3/rdock/2013.1/src/exe/rbdock.cxx#4 $)

>  <Rbt.Library>
libRbt.so (2013.1, Build901 2013/11/27)

>  <Rbt.Parameter_File>
/home/fstefaniak/progs/rDock//data/scripts/dock_solv.prm

>  <Rbt.Receptor>
4tzx.prm

>  <SCORE>
-45.1755

>  <SCORE.INTER>
-26.6837

>  <SCORE.INTER.CONST>
1

>  <SCORE.INTER.POLAR>
-5.34895

>  <SCORE.INTER.ROT>
3

>  <SCORE.INTER.SOLV>
13.8923

>  <SCORE.INTER.VDW>
-10.1901

>  <SCORE.INTER.norm>
-2.42579

>  <SCORE.INTRA>
2.20836

>  <SCORE.INTRA.DIHEDRAL>
1.05911

>  <SCORE.INTRA.DIHEDRAL.0>
1.26077

>  <SCORE.INTRA.POLAR>
0

>  <SCORE.INTRA.POLAR.0>
0

>  <SCORE.INTRA.REPUL>
0

>  <SCORE.INTRA.REPUL.0>
0

>  <SCORE.INTRA.SOLV>
0.196804

>  <SCORE.INTRA.SOLV.lig_0>
-14.2998

>  <SCORE.INTRA.VDW>
1.5804

>  <SCORE.INTRA.VDW.0>
-0.518619

>  <SCORE.INTRA.norm>
0.20076

>  <SCORE.RESTR>
0

>  <SCORE.RESTR.CAVITY>
0

>  <SCORE.RESTR.norm>
0

>  <SCORE.SYSTEM>
-20.7001

>  <SCORE.SYSTEM.CONST>
0

>  <SCORE.SYSTEM.DIHEDRAL>
5.00435

>  <SCORE.SYSTEM.POLAR>
-3.14372

>  <SCORE.SYSTEM.SOLV>
0.210441

>  <SCORE.SYSTEM.VDW>
-5.05927

>  <SCORE.SYSTEM.norm>
-1.88183

>  <SCORE.heavy>
11

>  <SCORE.norm>
-4.10686

$$$$
P137315312
 OpenBabel12072022113D
libRbt.so/2013.1/901 2013/11/27
 17 18  0  0  0  0  0  0  0  0999 V2000
  -27.6657   11.7099  -16.4118 C   0  0  0  0  0  0  0  0  0  0  0  0
  -26.7285   12.7694  -15.8265 C   0  0  0  0  0  0  0  0  0  0  0  0
  -25.2644   12.4150  -16.0974 C   0  0  0  0  0  0  0  0  0  0  0  0
  -27.0670   14.1758  -16.4091 C   0  0  0  0  0  0  0  0  0  0  0  0
  -26.5153   14.6183  -17.4175 O   0  0  0  0  0  0  0  0  0  0  0  0
  -28.0209   14.8953  -15.7197 N   0  0  0  0  0  0  0  0  0  0  0  0
  -28.4547   16.2012  -16.1998 C   0  0  2  0  0  0  0  0  0  0  0  0
  -28.8906   17.1056  -15.0384 C   0  0  0  0  0  0  0  0  0  0  0  0
  -30.3458   17.4046  -15.3977 C   0  0  1  0  0  0  0  0  0  0  0  0
  -30.4264   18.3413  -16.6018 C   0  0  0  0  0  0  0  0  0  0  0  0
  -30.0227   17.4199  -17.7530 C   0  0  0  0  0  0  0  0  0  0  0  0
  -29.7511   16.1037  -17.0277 C   0  0  2  0  0  0  0  0  0  0  0  0
  -30.7595   16.1477  -15.9813 O   0  0  0  0  0  0  0  0  0  0  0  0
  -26.9296   12.8012  -14.3575 N   0  0  0  0  0  0  0  0  0  0  0  0
  -28.6762   14.3821  -15.1428 H   0  0  0  0  0  0  0  0  0  0  0  0
  -26.5351   11.9392  -13.9717 H   0  0  0  0  0  0  0  0  0  0  0  0
  -27.9324   12.6944  -14.1809 H   0  0  0  0  0  0  0  0  0  0  0  0
  1  2  1  0  0  0  0
  2  3  1  0  0  0  0
  2  4  1  0  0  0  0
  2 14  1  0  0  0  0
  4  5  2  0  0  0  0
  4  6  1  0  0  0  0
  6 15  1  0  0  0  0
  7  6  1  1  0  0  0
  7  8  1  0  0  0  0
  7 12  1  0  0  0  0
  9  8  1  6  0  0  0
  9 10  1  0  0  0  0
  9 13  1  0  0  0  0
 10 11  1  0  0  0  0
 12 11  1  6  0  0  0
 12 13  1  0  0  0  0
 14 16  1  0  0  0  0
 14 17  1  0  0  0  0
M  END
>  <CHROM.0>
-63.75224760,66.35021455,-67.33912852,-43.21000151,179.70563193,-63.03850626
-64.23244895,-56.74366403,-169.08490962

>  <CHROM.1>
-91.75352522,70.86961506,-177.66741649,-150.32194794,-28.33468455,15.10387690
-16.14562307,0.54840633,-0.76942004,2.19039584

>  <Name>
P137315312

>  <RI>
0

>  <Rbt.Current_Directory>
/home/fstefaniak/projects/zuza/docking/adenine/4TZX

>  <Rbt.Executable>
rbdock ($Id: //depot/dev/client3/rdock/2013.1/src/exe/rbdock.cxx#4 $)

>  <Rbt.Library>
libRbt.so (2013.1, Build901 2013/11/27)

>  <Rbt.Parameter_File>
/home/fstefaniak/progs/rDock//data/scripts/dock_solv.prm

>  <Rbt.Receptor>
4tzx.prm

>  <SCORE>
-45.0903

>  <SCORE.INTER>
-27.4363

>  <SCORE.INTER.CONST>
1

>  <SCORE.INTER.POLAR>
-3.1333

>  <SCORE.INTER.ROT>
4

>  <SCORE.INTER.SOLV>
11.0548

>  <SCORE.INTER.VDW>
-17.7982

>  <SCORE.INTER.norm>
-1.95974

>  <SCORE.INTRA>
2.47513

>  <SCORE.INTRA.DIHEDRAL>
2.1132

>  <SCORE.INTRA.DIHEDRAL.0>
1.28683

>  <SCORE.INTRA.POLAR>
0

>  <SCORE.INTRA.POLAR.0>
0

>  <SCORE.INTRA.REPUL>
0

>  <SCORE.INTRA.REPUL.0>
0

>  <SCORE.INTRA.SOLV>
0.101738

>  <SCORE.INTRA.SOLV.lig_0>
-11.654

>  <SCORE.INTRA.VDW>
1.36766

>  <SCORE.INTRA.VDW.0>
-0.365778

>  <SCORE.INTRA.norm>
0.176795

>  <SCORE.RESTR>
0.110872

>  <SCORE.RESTR.CAVITY>
0.110872

>  <SCORE.RESTR.norm>
0.00791944

>  <SCORE.SYSTEM>
-20.24

>  <SCORE.SYSTEM.CONST>
0

>  <SCORE.SYSTEM.DIHEDRAL>
4.58917

>  <SCORE.SYSTEM.POLAR>
-3.0288

>  <SCORE.SYSTEM.SOLV>
0.0346033

>  <SCORE.SYSTEM.VDW>
-4.93858

>  <SCORE.SYSTEM.norm>
-1.44571

>  <SCORE.heavy>
14

>  <SCORE.norm>
-3.22074

$$$$
P137315312
 OpenBabel12072022113D
libRbt.so/2013.1/901 2013/11/27
 17 18  0  0  0  0  0  0  0  0999 V2000
  -29.1856   17.5173  -14.4665 C   0  0  0  0  0  0  0  0  0  0  0  0
  -29.6137   16.6281  -15.6368 C   0  0  0  0  0  0  0  0  0  0  0  0
  -30.2244   17.4636  -16.7644 C   0  0  0  0  0  0  0  0  0  0  0  0
  -28.4004   15.8025  -16.1640 C   0  0  0  0  0  0  0  0  0  0  0  0
  -27.3672   16.3388  -16.5667 O   0  0  0  0  0  0  0  0  0  0  0  0
  -28.5597   14.4324  -16.1555 N   0  0  0  0  0  0  0  0  0  0  0  0
  -27.4864   13.5583  -16.6114 C   0  0  2  0  0  0  0  0  0  0  0  0
  -27.6879   12.1207  -16.1122 C   0  0  0  0  0  0  0  0  0  0  0  0
  -26.4178   11.8874  -15.2944 C   0  0  1  0  0  0  0  0  0  0  0  0
  -25.2000   11.7587  -16.2076 C   0  0  0  0  0  0  0  0  0  0  0  0
  -24.9913   13.2008  -16.6700 C   0  0  0  0  0  0  0  0  0  0  0  0
  -26.1356   13.9293  -15.9684 C   0  0  2  0  0  0  0  0  0  0  0  0
  -26.2074   13.1958  -14.7151 O   0  0  0  0  0  0  0  0  0  0  0  0
  -30.6516   15.6892  -15.1462 N   0  0  0  0  0  0  0  0  0  0  0  0
  -29.2204   14.0363  -15.4979 H   0  0  0  0  0  0  0  0  0  0  0  0
  -30.8902   15.0601  -15.9174 H   0  0  0  0  0  0  0  0  0  0  0  0
  -31.5136   16.2250  -15.0114 H   0  0  0  0  0  0  0  0  0  0  0  0
  1  2  1  0  0  0  0
  2  3  1  0  0  0  0
  2  4  1  0  0  0  0
  2 14  1  0  0  0  0
  4  5  2  0  0  0  0
  4  6  1  0  0  0  0
  6 15  1  0  0  0  0
  7  6  1  1  0  0  0
  7  8  1  0  0  0  0
  7 12  1  0  0  0  0
  9  8  1  6  0  0  0
  9 10  1  0  0  0  0
  9 13  1  0  0  0  0
 10 11  1  0  0  0  0
 12 11  1  6  0  0  0
 12 13  1  0  0  0  0
 14 16  1  0  0  0  0
 14 17  1  0  0  0  0
M  END
>  <CHROM.0>
-58.28019641,-61.09665691,-63.64976011,-43.59301887,-58.75124120,-59.52007032
-66.87847711,58.31350096,-169.27950316

>  <CHROM.1>
-57.76213233,-176.50327919,-179.30681363,161.93786279,-27.75741837,14.56795314
-15.87608509,-2.31373368,-0.23429763,2.98376379

>  <Name>
P137315312

>  <RI>
0

>  <Rbt.Current_Directory>
/home/fstefaniak/projects/zuza/docking/adenine/4TZX

>  <Rbt.Executable>
rbdock ($Id: //depot/dev/client3/rdock/2013.1/src/exe/rbdock.cxx#4 $)

>  <Rbt.Library>
libRbt.so (2013.1, Build901 2013/11/27)

>  <Rbt.Parameter_File>
/home/fstefaniak/progs/rDock//data/scripts/dock_solv.prm

>  <Rbt.Receptor>
4tzx.prm

>  <SCORE>
-44.2956

>  <SCORE.INTER>
-27.7454

>  <SCORE.INTER.CONST>
1

>  <SCORE.INTER.POLAR>
-3.72926

>  <SCORE.INTER.ROT>
4

>  <SCORE.INTER.SOLV>
11.0277

>  <SCORE.INTER.VDW>
-16.0087

>  <SCORE.INTER.norm>
-1.98182

>  <SCORE.INTRA>
3.61731

>  <SCORE.INTRA.DIHEDRAL>
4.24327

>  <SCORE.INTRA.DIHEDRAL.0>
1.28683

>  <SCORE.INTRA.POLAR>
-0.0505505

>  <SCORE.INTRA.POLAR.0>
0

>  <SCORE.INTRA.REPUL>
0

>  <SCORE.INTRA.REPUL.0>
0

>  <SCORE.INTRA.SOLV>
0.503631

>  <SCORE.INTRA.SOLV.lig_0>
-11.654

>  <SCORE.INTRA.VDW>
1.41573

>  <SCORE.INTRA.VDW.0>
-0.365778

>  <SCORE.INTRA.norm>
0.258379

>  <SCORE.RESTR>
0

>  <SCORE.RESTR.CAVITY>
0

>  <SCORE.RESTR.norm>
0

>  <SCORE.SYSTEM>
-20.1675

>  <SCORE.SYSTEM.CONST>
0

>  <SCORE.SYSTEM.DIHEDRAL>
4.15982

>  <SCORE.SYSTEM.POLAR>
-3.0472

>  <SCORE.SYSTEM.SOLV>
0.0246621

>  <SCORE.SYSTEM.VDW>
-4.68248

>  <SCORE.SYSTEM.norm>
-1.44053

>  <SCORE.heavy>
14

>  <SCORE.norm>
-3.16397

$$$$
P137315312
 OpenBabel12072022113D
libRbt.so/2013.1/901 2013/11/27
 17 18  0  0  0  0  0  0  0  0999 V2000
  -26.9869   12.1129  -14.8264 C   0  0  0  0  0  0  0  0  0  0  0  0
  -26.0757   13.0901  -15.5736 C   0  0  0  0  0  0  0  0  0  0  0  0
  -25.0607   12.3395  -16.4391 C   0  0  0  0  0  0  0  0  0  0  0  0
  -26.9241   14.0643  -16.4472 C   0  0  0  0  0  0  0  0  0  0  0  0
  -26.7813   14.1441  -17.6680 O   0  0  0  0  0  0  0  0  0  0  0  0
  -27.8419   14.8351  -15.7645 N   0  0  0  0  0  0  0  0  0  0  0  0
  -28.2846   16.1138  -16.3057 C   0  0  2  0  0  0  0  0  0  0  0  0
  -28.6651   17.0919  -15.1853 C   0  0  0  0  0  0  0  0  0  0  0  0
  -30.1314   17.3838  -15.5028 C   0  0  1  0  0  0  0  0  0  0  0  0
  -30.2540   18.2461  -16.7579 C   0  0  0  0  0  0  0  0  0  0  0  0
  -29.9054   17.2521  -17.8658 C   0  0  0  0  0  0  0  0  0  0  0  0
  -29.6148   15.9797  -17.0728 C   0  0  2  0  0  0  0  0  0  0  0  0
  -30.5789   16.0980  -15.9910 O   0  0  0  0  0  0  0  0  0  0  0  0
  -25.3263   13.8818  -14.5681 N   0  0  0  0  0  0  0  0  0  0  0  0
  -28.4767   14.3654  -15.1303 H   0  0  0  0  0  0  0  0  0  0  0  0
  -24.6545   14.4668  -15.0721 H   0  0  0  0  0  0  0  0  0  0  0  0
  -24.7250   13.2342  -14.0512 H   0  0  0  0  0  0  0  0  0  0  0  0
  1  2  1  0  0  0  0
  2  3  1  0  0  0  0
  2  4  1  0  0  0  0
  2 14  1  0  0  0  0
  4  5  2  0  0  0  0
  4  6  1  0  0  0  0
  6 15  1  0  0  0  0
  7  6  1  1  0  0  0
  7  8  1  0  0  0  0
  7 12  1  0  0  0  0
  9  8  1  6  0  0  0
  9 10  1  0  0  0  0
  9 13  1  0  0  0  0
 10 11  1  0  0  0  0
 12 11  1  6  0  0  0
 12 13  1  0  0  0  0
 14 16  1  0  0  0  0
 14 17  1  0  0  0  0
M  END
>  <CHROM.0>
-61.35466088,47.56238700,-45.68008126,47.95149985,-62.00862351,-63.71725939
-64.04888128,-60.87172486,-168.48656413

>  <CHROM.1>
-121.00287649,174.56334516,154.59335721,-150.38663387,-28.00300354,15.15187838
-16.12846025,0.12220345,-0.80282976,1.55087615

>  <Name>
P137315312

>  <RI>
0

>  <Rbt.Current_Directory>
/home/fstefaniak/projects/zuza/docking/adenine/4TZX

>  <Rbt.Executable>
rbdock ($Id: //depot/dev/client3/rdock/2013.1/src/exe/rbdock.cxx#4 $)

>  <Rbt.Library>
libRbt.so (2013.1, Build901 2013/11/27)

>  <Rbt.Parameter_File>
/home/fstefaniak/progs/rDock//data/scripts/dock_solv.prm

>  <Rbt.Receptor>
4tzx.prm

>  <SCORE>
-43.3011

>  <SCORE.INTER>
-27.7958

>  <SCORE.INTER.CONST>
1

>  <SCORE.INTER.POLAR>
-3.69034

>  <SCORE.INTER.ROT>
4

>  <SCORE.INTER.SOLV>
11.2865

>  <SCORE.INTER.VDW>
-16.2582

>  <SCORE.INTER.norm>
-1.98541

>  <SCORE.INTRA>
1.36084

>  <SCORE.INTRA.DIHEDRAL>
0.113174

>  <SCORE.INTRA.DIHEDRAL.0>
1.28683

>  <SCORE.INTRA.POLAR>
0

>  <SCORE.INTRA.POLAR.0>
0

>  <SCORE.INTRA.REPUL>
0

>  <SCORE.INTRA.REPUL.0>
0

>  <SCORE.INTRA.SOLV>
-0.0190785

>  <SCORE.INTRA.SOLV.lig_0>
-11.654

>  <SCORE.INTRA.VDW>
1.3138

>  <SCORE.INTRA.VDW.0>
-0.365778

>  <SCORE.INTRA.norm>
0.0972032

>  <SCORE.RESTR>
0

>  <SCORE.RESTR.CAVITY>
0

>  <SCORE.RESTR.norm>
0

>  <SCORE.SYSTEM>
-16.8661

>  <SCORE.SYSTEM.CONST>
0

>  <SCORE.SYSTEM.DIHEDRAL>
5.16214

>  <SCORE.SYSTEM.POLAR>
-2.6515

>  <SCORE.SYSTEM.SOLV>
0.259412

>  <SCORE.SYSTEM.VDW>
-4.21291

>  <SCORE.SYSTEM.norm>
-1.20472

>  <SCORE.heavy>
14

>  <SCORE.norm>
-3.09293

$$$$
P137317917
 OpenBabel12072022113D
libRbt.so/2013.1/901 2013/11/27
 18 19  0  0  0  0  0  0  0  0999 V2000
  -30.8659   18.3561  -15.6766 C   0  0  0  0  0  0  0  0  0  0  0  0
  -30.7784   17.5812  -16.9908 C   0  0  0  0  0  0  0  0  0  0  0  0
  -29.9742   16.3492  -16.5856 C   0  0  1  0  0  0  0  0  0  0  0  0
  -28.5029   16.7174  -16.3192 C   0  0  1  0  0  0  0  0  0  0  0  0
  -28.6019   17.4836  -14.9922 C   0  0  0  0  0  0  0  0  0  0  0  0
  -30.1058   17.4479  -14.7141 C   0  0  2  0  0  0  0  0  0  0  0  0
  -30.4452   16.1308  -15.2266 O   0  0  0  0  0  0  0  0  0  0  0  0
  -27.5951   15.5422  -16.2183 N   0  0  0  0  0  0  0  0  0  0  0  0
  -26.2832   15.4732  -16.5298 C   0  0  0  0  0  0  0  0  0  0  0  0
  -25.5724   16.5273  -17.0288 N   0  3  0  0  0  0  0  0  0  0  0  0
  -25.9476   17.4869  -17.0310 H   0  0  0  0  0  0  0  0  0  0  0  0
  -24.2250   16.3531  -17.3856 N   0  0  0  0  0  0  0  0  0  0  0  0
  -25.6399   14.3061  -16.3419 N   0  0  0  0  0  0  0  0  0  0  0  0
  -28.0068   14.6883  -15.8656 H   0  0  0  0  0  0  0  0  0  0  0  0
  -23.8322   17.2662  -17.6457 H   0  0  0  0  0  0  0  0  0  0  0  0
  -23.7032   16.0572  -16.5502 H   0  0  0  0  0  0  0  0  0  0  0  0
  -26.0737   13.4754  -15.9707 H   0  0  0  0  0  0  0  0  0  0  0  0
  -24.6349   14.3172  -16.4787 H   0  0  0  0  0  0  0  0  0  0  0  0
  1  2  1  0  0  0  0
  3  2  1  1  0  0  0
  3  4  1  0  0  0  0
  3  7  1  0  0  0  0
  4  5  1  0  0  0  0
  4  8  1  1  0  0  0
  5  6  1  0  0  0  0
  6  1  1  6  0  0  0
  6  7  1  0  0  0  0
  8  9  1  0  0  0  0
  8 14  1  0  0  0  0
  9 10  2  0  0  0  0
  9 13  1  0  0  0  0
 10 11  1  0  0  0  0
 10 12  1  0  0  0  0
 12 15  1  0  0  0  0
 12 16  1  0  0  0  0
 13 17  1  0  0  0  0
 13 18  1  0  0  0  0
M  CHG  1  10   1
M  END
>  <CHROM.0>
-61.84856767,-62.56128812,-61.06931166,-41.49412239,-175.54623878,58.17446244
-64.38980351,-55.00384218,-169.41845637

>  <CHROM.1>
150.49922073,-174.24401605,-28.14160060,16.49059528,-16.17221721,-2.89853819
-0.28307143,2.88603178

>  <Name>
P137317917

>  <RI>
0

>  <Rbt.Current_Directory>
/home/fstefaniak/projects/zuza/docking/adenine/4TZX

>  <Rbt.Executable>
rbdock ($Id: //depot/dev/client3/rdock/2013.1/src/exe/rbdock.cxx#4 $)

>  <Rbt.Library>
libRbt.so (2013.1, Build901 2013/11/27)

>  <Rbt.Parameter_File>
/home/fstefaniak/progs/rDock//data/scripts/dock_solv.prm

>  <Rbt.Receptor>
4tzx.prm

>  <SCORE>
-54.4375

>  <SCORE.INTER>
-37.0722

>  <SCORE.INTER.CONST>
1

>  <SCORE.INTER.POLAR>
-5.74629

>  <SCORE.INTER.ROT>
2

>  <SCORE.INTER.SOLV>
17.3131

>  <SCORE.INTER.VDW>
-16.2648

>  <SCORE.INTER.norm>
-3.08935

>  <SCORE.INTRA>
2.66009

>  <SCORE.INTRA.DIHEDRAL>
0.0230451

>  <SCORE.INTRA.DIHEDRAL.0>
3.19751

>  <SCORE.INTRA.POLAR>
1.02778

>  <SCORE.INTRA.POLAR.0>
-1.06683

>  <SCORE.INTRA.REPUL>
0

>  <SCORE.INTRA.REPUL.0>
0

>  <SCORE.INTRA.SOLV>
-1.83623

>  <SCORE.INTRA.SOLV.lig_0>
-28.1807

>  <SCORE.INTRA.VDW>
0.0722434

>  <SCORE.INTRA.VDW.0>
-0.821501

>  <SCORE.INTRA.norm>
0.221674

>  <SCORE.RESTR>
0

>  <SCORE.RESTR.CAVITY>
0

>  <SCORE.RESTR.norm>
0

>  <SCORE.SYSTEM>
-20.0254

>  <SCORE.SYSTEM.CONST>
0

>  <SCORE.SYSTEM.DIHEDRAL>
4.49476

>  <SCORE.SYSTEM.POLAR>
-3.06573

>  <SCORE.SYSTEM.SOLV>
-0.115712

>  <SCORE.SYSTEM.VDW>
-4.59086

>  <SCORE.SYSTEM.norm>
-1.66879

>  <SCORE.heavy>
12

>  <SCORE.norm>
-4.53646

$$$$
P137317917
 OpenBabel12072022113D
libRbt.so/2013.1/901 2013/11/27
 18 19  0  0  0  0  0  0  0  0999 V2000
  -31.0158   18.3302  -15.6384 C   0  0  0  0  0  0  0  0  0  0  0  0
  -30.7879   17.5963  -16.9593 C   0  0  0  0  0  0  0  0  0  0  0  0
  -29.9991   16.3683  -16.5139 C   0  0  1  0  0  0  0  0  0  0  0  0
  -28.5677   16.7563  -16.0989 C   0  0  1  0  0  0  0  0  0  0  0  0
  -28.8081   17.4809  -14.7666 C   0  0  0  0  0  0  0  0  0  0  0  0
  -30.3305   17.4084  -14.6336 C   0  0  2  0  0  0  0  0  0  0  0  0
  -30.5913   16.1009  -15.2124 O   0  0  0  0  0  0  0  0  0  0  0  0
  -27.6483   15.5961  -15.9449 N   0  0  0  0  0  0  0  0  0  0  0  0
  -26.3596   15.4963  -16.3349 C   0  0  0  0  0  0  0  0  0  0  0  0
  -25.6897   16.4964  -16.9804 N   0  3  0  0  0  0  0  0  0  0  0  0
  -26.0700   17.4514  -17.0510 H   0  0  0  0  0  0  0  0  0  0  0  0
  -24.3680   16.2874  -17.4076 N   0  0  0  0  0  0  0  0  0  0  0  0
  -25.6982   14.3528  -16.0777 N   0  0  0  0  0  0  0  0  0  0  0  0
  -28.0306   14.7809  -15.4842 H   0  0  0  0  0  0  0  0  0  0  0  0
  -24.3754   16.0851  -18.4150 H   0  0  0  0  0  0  0  0  0  0  0  0
  -23.8509   17.1709  -17.3084 H   0  0  0  0  0  0  0  0  0  0  0  0
  -26.1015   13.5625  -15.5993 H   0  0  0  0  0  0  0  0  0  0  0  0
  -24.7047   14.3499  -16.2815 H   0  0  0  0  0  0  0  0  0  0  0  0
  1  2  1  0  0  0  0
  3  2  1  1  0  0  0
  3  4  1  0  0  0  0
  3  7  1  0  0  0  0
  4  5  1  0  0  0  0
  4  8  1  1  0  0  0
  5  6  1  0  0  0  0
  6  1  1  6  0  0  0
  6  7  1  0  0  0  0
  8  9  1  0  0  0  0
  8 14  1  0  0  0  0
  9 10  2  0  0  0  0
  9 13  1  0  0  0  0
 10 11  1  0  0  0  0
 10 12  1  0  0  0  0
 12 15  1  0  0  0  0
 12 16  1  0  0  0  0
 13 17  1  0  0  0  0
 13 18  1  0  0  0  0
M  CHG  1  10   1
M  END
>  <CHROM.0>
-56.51637459,-175.50278265,-52.31383087,-43.71620747,57.18556450,-59.78456502
-68.73076478,62.63456625,-169.27537751

>  <CHROM.1>
138.70804921,100.96517604,-28.25038101,16.49070714,-16.06208382,-2.97342951
-0.33341615,2.64363779

>  <Name>
P137317917

>  <RI>
0

>  <Rbt.Current_Directory>
/home/fstefaniak/projects/zuza/docking/adenine/4TZX

>  <Rbt.Executable>
rbdock ($Id: //depot/dev/client3/rdock/2013.1/src/exe/rbdock.cxx#4 $)

>  <Rbt.Library>
libRbt.so (2013.1, Build901 2013/11/27)

>  <Rbt.Parameter_File>
/home/fstefaniak/progs/rDock//data/scripts/dock_solv.prm

>  <Rbt.Receptor>
4tzx.prm

>  <SCORE>
-51.7493

>  <SCORE.INTER>
-35.1688

>  <SCORE.INTER.CONST>
1

>  <SCORE.INTER.POLAR>
-5.5137

>  <SCORE.INTER.ROT>
2

>  <SCORE.INTER.SOLV>
17.5384

>  <SCORE.INTER.VDW>
-15.8463

>  <SCORE.INTER.norm>
-2.93074

>  <SCORE.INTRA>
2.30508

>  <SCORE.INTRA.DIHEDRAL>
0.200628

>  <SCORE.INTRA.DIHEDRAL.0>
3.19751

>  <SCORE.INTRA.POLAR>
0.99435

>  <SCORE.INTRA.POLAR.0>
-1.06683

>  <SCORE.INTRA.REPUL>
0

>  <SCORE.INTRA.REPUL.0>
0

>  <SCORE.INTRA.SOLV>
-2.05879

>  <SCORE.INTRA.SOLV.lig_0>
-28.1807

>  <SCORE.INTRA.VDW>
-0.146629

>  <SCORE.INTRA.VDW.0>
-0.821501

>  <SCORE.INTRA.norm>
0.19209

>  <SCORE.RESTR>
0

>  <SCORE.RESTR.CAVITY>
0

>  <SCORE.RESTR.norm>
0

>  <SCORE.SYSTEM>
-18.8855

>  <SCORE.SYSTEM.CONST>
0

>  <SCORE.SYSTEM.DIHEDRAL>
4.65676

>  <SCORE.SYSTEM.POLAR>
-3.10587

>  <SCORE.SYSTEM.SOLV>
-0.212016

>  <SCORE.SYSTEM.VDW>
-3.71902

>  <SCORE.SYSTEM.norm>
-1.57379

>  <SCORE.heavy>
12

>  <SCORE.norm>
-4.31244

$$$$
P137317917
 OpenBabel12072022113D
libRbt.so/2013.1/901 2013/11/27
 18 19  0  0  0  0  0  0  0  0999 V2000
  -30.9358   18.3689  -15.4419 C   0  0  0  0  0  0  0  0  0  0  0  0
  -30.8993   17.5070  -16.7033 C   0  0  0  0  0  0  0  0  0  0  0  0
  -30.0572   16.3158  -16.2556 C   0  0  1  0  0  0  0  0  0  0  0  0
  -28.5807   16.7199  -16.0873 C   0  0  1  0  0  0  0  0  0  0  0  0
  -28.6279   17.5739  -14.8120 C   0  0  0  0  0  0  0  0  0  0  0  0
  -30.1160   17.5383  -14.4586 C   0  0  2  0  0  0  0  0  0  0  0  0
  -30.4586   16.1851  -14.8634 O   0  0  0  0  0  0  0  0  0  0  0  0
  -27.6506   15.5659  -15.9517 N   0  0  0  0  0  0  0  0  0  0  0  0
  -26.3605   15.4849  -16.3413 C   0  0  0  0  0  0  0  0  0  0  0  0
  -25.6991   16.5021  -16.9685 N   0  3  0  0  0  0  0  0  0  0  0  0
  -26.0883   17.4547  -17.0234 H   0  0  0  0  0  0  0  0  0  0  0  0
  -24.3749   16.3130  -17.3971 N   0  0  0  0  0  0  0  0  0  0  0  0
  -25.6887   14.3434  -16.1026 N   0  0  0  0  0  0  0  0  0  0  0  0
  -28.0259   14.7393  -15.5055 H   0  0  0  0  0  0  0  0  0  0  0  0
  -24.3815   16.0943  -18.4011 H   0  0  0  0  0  0  0  0  0  0  0  0
  -23.8754   17.2082  -17.3140 H   0  0  0  0  0  0  0  0  0  0  0  0
  -26.0852   13.5413  -15.6385 H   0  0  0  0  0  0  0  0  0  0  0  0
  -24.6949   14.3534  -16.3050 H   0  0  0  0  0  0  0  0  0  0  0  0
  1  2  1  0  0  0  0
  3  2  1  1  0  0  0
  3  4  1  0  0  0  0
  3  7  1  0  0  0  0
  4  5  1  0  0  0  0
  4  8  1  1  0  0  0
  5  6  1  0  0  0  0
  6  1  1  6  0  0  0
  6  7  1  0  0  0  0
  8  9  1  0  0  0  0
  8 14  1  0  0  0  0
  9 10  2  0  0  0  0
  9 13  1  0  0  0  0
 10 11  1  0  0  0  0
 10 12  1  0  0  0  0
 12 15  1  0  0  0  0
 12 16  1  0  0  0  0
 13 17  1  0  0  0  0
 13 18  1  0  0  0  0
M  CHG  1  10   1
M  END
>  <CHROM.0>
-58.16276592,-59.71140871,-66.12643999,-42.58842884,-173.33819636,-57.46713003
-65.54751509,-56.57716127,-168.71698421

>  <CHROM.1>
149.32626226,98.94599755,-28.21580773,16.50362808,-15.96378603,-2.94447072
-0.34906053,2.76552854

>  <Name>
P137317917

>  <RI>
0

>  <Rbt.Current_Directory>
/home/fstefaniak/projects/zuza/docking/adenine/4TZX

>  <Rbt.Executable>
rbdock ($Id: //depot/dev/client3/rdock/2013.1/src/exe/rbdock.cxx#4 $)

>  <Rbt.Library>
libRbt.so (2013.1, Build901 2013/11/27)

>  <Rbt.Parameter_File>
/home/fstefaniak/progs/rDock//data/scripts/dock_solv.prm

>  <Rbt.Receptor>
4tzx.prm

>  <SCORE>
-51.6913

>  <SCORE.INTER>
-32.854

>  <SCORE.INTER.CONST>
1

>  <SCORE.INTER.POLAR>
-5.51818

>  <SCORE.INTER.ROT>
2

>  <SCORE.INTER.SOLV>
17.5656

>  <SCORE.INTER.VDW>
-14.2973

>  <SCORE.INTER.norm>
-2.73783

>  <SCORE.INTRA>
2.31764

>  <SCORE.INTRA.DIHEDRAL>
0.209189

>  <SCORE.INTRA.DIHEDRAL.0>
3.19751

>  <SCORE.INTRA.POLAR>
0.99435

>  <SCORE.INTRA.POLAR.0>
-1.06683

>  <SCORE.INTRA.REPUL>
0

>  <SCORE.INTRA.REPUL.0>
0

>  <SCORE.INTRA.SOLV>
-2.02173

>  <SCORE.INTRA.SOLV.lig_0>
-28.1807

>  <SCORE.INTRA.VDW>
-0.156878

>  <SCORE.INTRA.VDW.0>
-0.821501

>  <SCORE.INTRA.norm>
0.193137

>  <SCORE.RESTR>
0

>  <SCORE.RESTR.CAVITY>
0

>  <SCORE.RESTR.norm>
0

>  <SCORE.SYSTEM>
-21.1549

>  <SCORE.SYSTEM.CONST>
0

>  <SCORE.SYSTEM.DIHEDRAL>
4.64771

>  <SCORE.SYSTEM.POLAR>
-3.07946

>  <SCORE.SYSTEM.SOLV>
0.0200302

>  <SCORE.SYSTEM.VDW>
-5.39432

>  <SCORE.SYSTEM.norm>
-1.76291

>  <SCORE.heavy>
12

>  <SCORE.norm>
-4.30761

$$$$
P137721766
 OpenBabel12072022113D
libRbt.so/2013.1/901 2013/11/27
 17 18  0  0  0  0  0  0  0  0999 V2000
  -26.9923   11.4234  -15.9890 C   0  0  0  0  0  0  0  0  0  0  0  0
  -26.8392   12.0955  -17.3529 C   0  0  0  0  0  0  0  0  0  0  0  0
  -26.5561   13.5968  -17.2107 C   0  0  2  0  0  0  0  0  0  0  0  0
  -25.4025   13.8130  -16.2214 C   0  0  0  0  0  0  0  0  0  0  0  0
  -25.7037   13.2074  -14.9556 O   0  0  0  0  0  0  0  0  0  0  0  0
  -25.8363   11.7888  -15.0668 C   0  0  0  0  0  0  0  0  0  0  0  0
  -27.7443   14.3067  -16.7448 N   0  0  0  0  0  0  0  0  0  0  0  0
  -27.7141   15.6186  -16.3097 C   0  0  0  0  0  0  0  0  0  0  0  0
  -26.6471   16.2276  -16.2066 O   0  0  0  0  0  0  0  0  0  0  0  0
  -29.1435   16.2237  -15.9875 C   0  0  0  0  0  0  0  0  0  0  0  0
  -29.1999   17.5648  -15.2069 C   0  0  0  0  0  0  0  0  0  0  0  0
  -30.3338   18.0294  -16.1417 C   0  0  0  0  0  0  0  0  0  0  0  0
  -29.8968   16.9395  -17.1398 C   0  0  0  0  0  0  0  0  0  0  0  0
  -30.1035   15.2966  -15.3363 N   0  0  0  0  0  0  0  0  0  0  0  0
  -28.6444   13.8880  -16.9402 H   0  0  0  0  0  0  0  0  0  0  0  0
  -29.6958   14.3995  -15.0758 H   0  0  0  0  0  0  0  0  0  0  0  0
  -30.9512   15.1132  -15.8682 H   0  0  0  0  0  0  0  0  0  0  0  0
  1  2  1  0  0  0  0
  1  6  1  0  0  0  0
  2  3  1  0  0  0  0
  3  4  1  0  0  0  0
  3  7  1  1  0  0  0
  4  5  1  0  0  0  0
  5  6  1  0  0  0  0
  7  8  1  0  0  0  0
  7 15  1  0  0  0  0
  8  9  2  0  0  0  0
  8 10  1  0  0  0  0
 10 11  1  0  0  0  0
 10 13  1  0  0  0  0
 10 14  1  0  0  0  0
 11 12  1  0  0  0  0
 12 13  1  0  0  0  0
 14 16  1  0  0  0  0
 14 17  1  0  0  0  0
M  END
>  <CHROM.0>
-61.40717511,-60.50236895,-71.13956741,-41.75004350,-54.42613072,-62.30841267
-170.68459011,59.23014338,-169.26887577

>  <CHROM.1>
168.44023590,166.94655652,6.43136740,-27.71403786,14.70102262,-16.11416999
0.92190779,0.11778344,-3.06362649

>  <Name>
P137721766

>  <RI>
0

>  <Rbt.Current_Directory>
/home/fstefaniak/projects/zuza/docking/adenine/4TZX

>  <Rbt.Executable>
rbdock ($Id: //depot/dev/client3/rdock/2013.1/src/exe/rbdock.cxx#4 $)

>  <Rbt.Library>
libRbt.so (2013.1, Build901 2013/11/27)

>  <Rbt.Parameter_File>
/home/fstefaniak/progs/rDock//data/scripts/dock_solv.prm

>  <Rbt.Receptor>
4tzx.prm

>  <SCORE>
-47.9505

>  <SCORE.INTER>
-30.3886

>  <SCORE.INTER.CONST>
1

>  <SCORE.INTER.POLAR>
-3.46278

>  <SCORE.INTER.ROT>
3

>  <SCORE.INTER.SOLV>
10.8623

>  <SCORE.INTER.VDW>
-17.9372

>  <SCORE.INTER.norm>
-2.17061

>  <SCORE.INTRA>
1.99645

>  <SCORE.INTRA.DIHEDRAL>
0.0651771

>  <SCORE.INTRA.DIHEDRAL.0>
4.27198

>  <SCORE.INTRA.POLAR>
0

>  <SCORE.INTRA.POLAR.0>
0

>  <SCORE.INTRA.REPUL>
0

>  <SCORE.INTRA.REPUL.0>
0

>  <SCORE.INTRA.SOLV>
0.168545

>  <SCORE.INTRA.SOLV.lig_0>
-12.4287

>  <SCORE.INTRA.VDW>
1.87959

>  <SCORE.INTRA.VDW.0>
-1.93606

>  <SCORE.INTRA.norm>
0.142604

>  <SCORE.RESTR>
0

>  <SCORE.RESTR.CAVITY>
0

>  <SCORE.RESTR.norm>
0

>  <SCORE.SYSTEM>
-19.5584

>  <SCORE.SYSTEM.CONST>
0

>  <SCORE.SYSTEM.DIHEDRAL>
5.22898

>  <SCORE.SYSTEM.POLAR>
-3.05087

>  <SCORE.SYSTEM.SOLV>
-0.00863538

>  <SCORE.SYSTEM.VDW>
-4.6095

>  <SCORE.SYSTEM.norm>
-1.39703

>  <SCORE.heavy>
14

>  <SCORE.norm>
-3.42504

$$$$
P137721766
 OpenBabel12072022113D
libRbt.so/2013.1/901 2013/11/27
 17 18  0  0  0  0  0  0  0  0999 V2000
  -27.0012   11.3903  -15.9312 C   0  0  0  0  0  0  0  0  0  0  0  0
  -26.6950   12.1695  -17.2096 C   0  0  0  0  0  0  0  0  0  0  0  0
  -26.4276   13.6512  -16.9138 C   0  0  2  0  0  0  0  0  0  0  0  0
  -25.3920   13.7738  -15.7874 C   0  0  0  0  0  0  0  0  0  0  0  0
  -25.8342   13.0703  -14.6172 O   0  0  0  0  0  0  0  0  0  0  0  0
  -25.9555   11.6670  -14.8587 C   0  0  0  0  0  0  0  0  0  0  0  0
  -27.6595   14.3333  -16.5269 N   0  0  0  0  0  0  0  0  0  0  0  0
  -27.6933   15.6575  -16.1308 C   0  0  0  0  0  0  0  0  0  0  0  0
  -26.6531   16.3050  -15.9953 O   0  0  0  0  0  0  0  0  0  0  0  0
  -29.1556   16.2225  -15.8956 C   0  0  0  0  0  0  0  0  0  0  0  0
  -29.2958   17.5618  -15.1225 C   0  0  0  0  0  0  0  0  0  0  0  0
  -30.3844   17.9944  -16.1242 C   0  0  0  0  0  0  0  0  0  0  0  0
  -29.8584   16.9167  -17.0923 C   0  0  0  0  0  0  0  0  0  0  0  0
  -30.1267   15.2693  -15.3011 N   0  0  0  0  0  0  0  0  0  0  0  0
  -28.5349   13.8788  -16.7523 H   0  0  0  0  0  0  0  0  0  0  0  0
  -29.7172   14.3715  -15.0458 H   0  0  0  0  0  0  0  0  0  0  0  0
  -30.9519   15.0878  -15.8678 H   0  0  0  0  0  0  0  0  0  0  0  0
  1  2  1  0  0  0  0
  1  6  1  0  0  0  0
  2  3  1  0  0  0  0
  3  4  1  0  0  0  0
  3  7  1  1  0  0  0
  4  5  1  0  0  0  0
  5  6  1  0  0  0  0
  7  8  1  0  0  0  0
  7 15  1  0  0  0  0
  8  9  2  0  0  0  0
  8 10  1  0  0  0  0
 10 11  1  0  0  0  0
 10 13  1  0  0  0  0
 10 14  1  0  0  0  0
 11 12  1  0  0  0  0
 12 13  1  0  0  0  0
 14 16  1  0  0  0  0
 14 17  1  0  0  0  0
M  END
>  <CHROM.0>
-61.38349910,47.36708556,-63.90278838,-43.50004630,58.16017206,-55.28780037
-68.01806009,-62.99657535,-169.23489448

>  <CHROM.1>
176.14494046,165.16799164,4.34790386,-27.71705404,14.68888980,-15.94470297
0.92118828,0.16014208,-3.07125667

>  <Name>
P137721766

>  <RI>
0

>  <Rbt.Current_Directory>
/home/fstefaniak/projects/zuza/docking/adenine/4TZX

>  <Rbt.Executable>
rbdock ($Id: //depot/dev/client3/rdock/2013.1/src/exe/rbdock.cxx#4 $)

>  <Rbt.Library>
libRbt.so (2013.1, Build901 2013/11/27)

>  <Rbt.Parameter_File>
/home/fstefaniak/progs/rDock//data/scripts/dock_solv.prm

>  <Rbt.Receptor>
4tzx.prm

>  <SCORE>
-46.835

>  <SCORE.INTER>
-29.0405

>  <SCORE.INTER.CONST>
1

>  <SCORE.INTER.POLAR>
-3.45021

>  <SCORE.INTER.ROT>
3

>  <SCORE.INTER.SOLV>
10.73

>  <SCORE.INTER.VDW>
-17.0363

>  <SCORE.INTER.norm>
-2.07432

>  <SCORE.INTRA>
1.55438

>  <SCORE.INTRA.DIHEDRAL>
0.332033

>  <SCORE.INTRA.DIHEDRAL.0>
4.27198

>  <SCORE.INTRA.POLAR>
0

>  <SCORE.INTRA.POLAR.0>
0

>  <SCORE.INTRA.REPUL>
0

>  <SCORE.INTRA.REPUL.0>
0

>  <SCORE.INTRA.SOLV>
0.103783

>  <SCORE.INTRA.SOLV.lig_0>
-12.4287

>  <SCORE.INTRA.VDW>
1.33647

>  <SCORE.INTRA.VDW.0>
-1.93606

>  <SCORE.INTRA.norm>
0.111027

>  <SCORE.RESTR>
0.0706264

>  <SCORE.RESTR.CAVITY>
0.0706264

>  <SCORE.RESTR.norm>
0.00504475

>  <SCORE.SYSTEM>
-19.4194

>  <SCORE.SYSTEM.CONST>
0

>  <SCORE.SYSTEM.DIHEDRAL>
5.12953

>  <SCORE.SYSTEM.POLAR>
-3.10712

>  <SCORE.SYSTEM.SOLV>
0.0739082

>  <SCORE.SYSTEM.VDW>
-4.3237

>  <SCORE.SYSTEM.norm>
-1.3871

>  <SCORE.heavy>
14

>  <SCORE.norm>
-3.34535

$$$$
P137721766
 OpenBabel12072022113D
libRbt.so/2013.1/901 2013/11/27
 17 18  0  0  0  0  0  0  0  0999 V2000
  -27.0126   11.3649  -16.0082 C   0  0  0  0  0  0  0  0  0  0  0  0
  -26.6995   12.1876  -17.2574 C   0  0  0  0  0  0  0  0  0  0  0  0
  -26.4256   13.6565  -16.9085 C   0  0  2  0  0  0  0  0  0  0  0  0
  -25.3922   13.7339  -15.7761 C   0  0  0  0  0  0  0  0  0  0  0  0
  -25.8407   12.9914  -14.6327 O   0  0  0  0  0  0  0  0  0  0  0  0
  -25.9682   11.5982  -14.9243 C   0  0  0  0  0  0  0  0  0  0  0  0
  -27.6552   14.3305  -16.5004 N   0  0  0  0  0  0  0  0  0  0  0  0
  -27.6953   15.6616  -16.1288 C   0  0  0  0  0  0  0  0  0  0  0  0
  -26.6603   16.3247  -16.0350 O   0  0  0  0  0  0  0  0  0  0  0  0
  -29.1578   16.2127  -15.8636 C   0  0  0  0  0  0  0  0  0  0  0  0
  -29.2971   17.5215  -15.0399 C   0  0  0  0  0  0  0  0  0  0  0  0
  -30.3933   17.9879  -16.0179 C   0  0  0  0  0  0  0  0  0  0  0  0
  -29.8701   16.9490  -17.0290 C   0  0  0  0  0  0  0  0  0  0  0  0
  -30.1223   15.2347  -15.2994 N   0  0  0  0  0  0  0  0  0  0  0  0
  -28.5305   13.8608  -16.6924 H   0  0  0  0  0  0  0  0  0  0  0  0
  -29.6959   14.3525  -15.0187 H   0  0  0  0  0  0  0  0  0  0  0  0
  -30.9177   15.0224  -15.8971 H   0  0  0  0  0  0  0  0  0  0  0  0
  1  2  1  0  0  0  0
  1  6  1  0  0  0  0
  2  3  1  0  0  0  0
  3  4  1  0  0  0  0
  3  7  1  1  0  0  0
  4  5  1  0  0  0  0
  5  6  1  0  0  0  0
  7  8  1  0  0  0  0
  7 15  1  0  0  0  0
  8  9  2  0  0  0  0
  8 10  1  0  0  0  0
 10 11  1  0  0  0  0
 10 13  1  0  0  0  0
 10 14  1  0  0  0  0
 11 12  1  0  0  0  0
 12 13  1  0  0  0  0
 14 16  1  0  0  0  0
 14 17  1  0  0  0  0
M  END
>  <CHROM.0>
-59.65082337,48.36109096,-62.53117055,51.11218801,-56.07561363,-61.00547639
-67.72188769,-56.62455727,-168.39770829

>  <CHROM.1>
179.87606439,161.63737600,8.47361634,-27.72095717,14.67171694,-15.93927699
0.92860978,0.12937362,-3.07533904

>  <Name>
P137721766

>  <RI>
0

>  <Rbt.Current_Directory>
/home/fstefaniak/projects/zuza/docking/adenine/4TZX

>  <Rbt.Executable>
rbdock ($Id: //depot/dev/client3/rdock/2013.1/src/exe/rbdock.cxx#4 $)

>  <Rbt.Library>
libRbt.so (2013.1, Build901 2013/11/27)

>  <Rbt.Parameter_File>
/home/fstefaniak/progs/rDock//data/scripts/dock_solv.prm

>  <Rbt.Receptor>
4tzx.prm

>  <SCORE>
-44.4365

>  <SCORE.INTER>
-28.7908

>  <SCORE.INTER.CONST>
1

>  <SCORE.INTER.POLAR>
-3.43021

>  <SCORE.INTER.ROT>
3

>  <SCORE.INTER.SOLV>
10.6955

>  <SCORE.INTER.VDW>
-16.925

>  <SCORE.INTER.norm>
-2.05649

>  <SCORE.INTRA>
1.48446

>  <SCORE.INTRA.DIHEDRAL>
0.629662

>  <SCORE.INTRA.DIHEDRAL.0>
4.27198

>  <SCORE.INTRA.POLAR>
0

>  <SCORE.INTRA.POLAR.0>
0

>  <SCORE.INTRA.REPUL>
0

>  <SCORE.INTRA.REPUL.0>
0

>  <SCORE.INTRA.SOLV>
0.0872517

>  <SCORE.INTRA.SOLV.lig_0>
-12.4287

>  <SCORE.INTRA.VDW>
1.12601

>  <SCORE.INTRA.VDW.0>
-1.93606

>  <SCORE.INTRA.norm>
0.106033

>  <SCORE.RESTR>
0.0524921

>  <SCORE.RESTR.CAVITY>
0.0524921

>  <SCORE.RESTR.norm>
0.00374943

>  <SCORE.SYSTEM>
-17.1826

>  <SCORE.SYSTEM.CONST>
0

>  <SCORE.SYSTEM.DIHEDRAL>
4.14458

>  <SCORE.SYSTEM.POLAR>
-2.54153

>  <SCORE.SYSTEM.SOLV>
0.238349

>  <SCORE.SYSTEM.VDW>
-4.44428

>  <SCORE.SYSTEM.norm>
-1.22733

>  <SCORE.heavy>
14

>  <SCORE.norm>
-3.17404

$$$$
P137722453
 OpenBabel12072022113D
libRbt.so/2013.1/901 2013/11/27
 15 16  0  0  0  0  0  0  0  0999 V2000
  -27.5808   12.2921  -16.9443 C   0  0  0  0  0  0  0  0  0  0  0  0
  -28.2308   13.5245  -17.6032 C   0  0  0  0  0  0  0  0  0  0  0  0
  -27.6086   14.4138  -16.4960 C   0  0  0  0  0  0  0  0  0  0  0  0
  -27.3998   13.1242  -15.6601 C   0  0  0  0  0  0  0  0  0  0  0  0
  -28.5124   15.5622  -15.8827 C   0  0  0  0  0  0  0  0  0  0  0  0
  -29.0100   15.5679  -14.7562 O   0  0  0  0  0  0  0  0  0  0  0  0
  -28.7151   16.6080  -16.7645 N   0  0  0  0  0  0  0  0  0  0  0  0
  -29.5737   17.7627  -16.4442 C   0  0  0  0  0  0  0  0  0  0  0  0
  -30.3296   18.3646  -17.6327 C   0  0  0  0  0  0  0  0  0  0  0  0
  -31.6088   17.9583  -17.0964 O   0  0  0  0  0  0  0  0  0  0  0  0
  -30.9700   17.4117  -15.9171 C   0  0  0  0  0  0  0  0  0  0  0  0
  -26.2730   14.8802  -16.9658 N   0  0  0  0  0  0  0  0  0  0  0  0
  -28.3341   16.4509  -17.6950 H   0  0  0  0  0  0  0  0  0  0  0  0
  -25.9221   15.7034  -16.4737 H   0  0  0  0  0  0  0  0  0  0  0  0
  -26.2782   15.1461  -17.9526 H   0  0  0  0  0  0  0  0  0  0  0  0
  1  2  1  0  0  0  0
  1  4  1  0  0  0  0
  2  3  1  0  0  0  0
  3  4  1  0  0  0  0
  3  5  1  0  0  0  0
  3 12  1  0  0  0  0
  5  6  2  0  0  0  0
  5  7  1  0  0  0  0
  7  8  1  0  0  0  0
  7 13  1  0  0  0  0
  8  9  1  0  0  0  0
  8 11  1  0  0  0  0
  9 10  1  0  0  0  0
 10 11  1  0  0  0  0
 12 14  1  0  0  0  0
 12 15  1  0  0  0  0
M  END
>  <CHROM.0>
-60.51891041,-72.38540499,-66.11456566,-43.07987763,-59.11711919,-64.56376601
-67.02392944,-60.89524711,-168.85186449

>  <CHROM.1>
107.99512184,160.33494421,-146.37683468,-28.83101851,15.65383609,-16.52327820
-0.55671292,0.78429222,-0.88828086

>  <Name>
P137722453

>  <RI>
0

>  <Rbt.Current_Directory>
/home/fstefaniak/projects/zuza/docking/adenine/4TZX

>  <Rbt.Executable>
rbdock ($Id: //depot/dev/client3/rdock/2013.1/src/exe/rbdock.cxx#4 $)

>  <Rbt.Library>
libRbt.so (2013.1, Build901 2013/11/27)

>  <Rbt.Parameter_File>
/home/fstefaniak/progs/rDock//data/scripts/dock_solv.prm

>  <Rbt.Receptor>
4tzx.prm

>  <SCORE>
-47.0428

>  <SCORE.INTER>
-26.0934

>  <SCORE.INTER.CONST>
1

>  <SCORE.INTER.POLAR>
-3.16673

>  <SCORE.INTER.ROT>
3

>  <SCORE.INTER.SOLV>
11.4071

>  <SCORE.INTER.VDW>
-16.2422

>  <SCORE.INTER.norm>
-2.17445

>  <SCORE.INTRA>
0.0755591

>  <SCORE.INTRA.DIHEDRAL>
-1.68457

>  <SCORE.INTRA.DIHEDRAL.0>
4.78512

>  <SCORE.INTRA.POLAR>
0.261758

>  <SCORE.INTRA.POLAR.0>
-0.261758

>  <SCORE.INTRA.REPUL>
0

>  <SCORE.INTRA.REPUL.0>
0

>  <SCORE.INTRA.SOLV>
0.179726

>  <SCORE.INTRA.SOLV.lig_0>
-14.0225

>  <SCORE.INTRA.VDW>
-0.0619934

>  <SCORE.INTRA.VDW.0>
-1.15575

>  <SCORE.INTRA.norm>
0.00629659

>  <SCORE.RESTR>
0

>  <SCORE.RESTR.CAVITY>
0

>  <SCORE.RESTR.norm>
0

>  <SCORE.SYSTEM>
-21.0249

>  <SCORE.SYSTEM.CONST>
0

>  <SCORE.SYSTEM.DIHEDRAL>
5.16783

>  <SCORE.SYSTEM.POLAR>
-3.04752

>  <SCORE.SYSTEM.SOLV>
0.16613

>  <SCORE.SYSTEM.VDW>
-5.63617

>  <SCORE.SYSTEM.norm>
-1.75207

>  <SCORE.heavy>
12

>  <SCORE.norm>
-3.92023

$$$$
P137722453
 OpenBabel12072022113D
libRbt.so/2013.1/901 2013/11/27
 15 16  0  0  0  0  0  0  0  0999 V2000
  -27.5908   12.3017  -16.9627 C   0  0  0  0  0  0  0  0  0  0  0  0
  -28.2445   13.5358  -17.6148 C   0  0  0  0  0  0  0  0  0  0  0  0
  -27.6204   14.4216  -16.5060 C   0  0  0  0  0  0  0  0  0  0  0  0
  -27.4071   13.1290  -15.6758 C   0  0  0  0  0  0  0  0  0  0  0  0
  -28.5239   15.5662  -15.8855 C   0  0  0  0  0  0  0  0  0  0  0  0
  -29.0150   15.5684  -14.7562 O   0  0  0  0  0  0  0  0  0  0  0  0
  -28.7348   16.6130  -16.7642 N   0  0  0  0  0  0  0  0  0  0  0  0
  -29.5949   17.7646  -16.4369 C   0  0  0  0  0  0  0  0  0  0  0  0
  -30.3643   18.3624  -17.6188 C   0  0  0  0  0  0  0  0  0  0  0  0
  -31.6368   17.9515  -17.0702 O   0  0  0  0  0  0  0  0  0  0  0  0
  -30.9848   17.4086  -15.8965 C   0  0  0  0  0  0  0  0  0  0  0  0
  -26.2868   14.8918  -16.9780 N   0  0  0  0  0  0  0  0  0  0  0  0
  -28.3586   16.4587  -17.6972 H   0  0  0  0  0  0  0  0  0  0  0  0
  -25.9407   15.7203  -16.4913 H   0  0  0  0  0  0  0  0  0  0  0  0
  -26.2926   15.1509  -17.9666 H   0  0  0  0  0  0  0  0  0  0  0  0
  1  2  1  0  0  0  0
  1  4  1  0  0  0  0
  2  3  1  0  0  0  0
  3  4  1  0  0  0  0
  3  5  1  0  0  0  0
  3 12  1  0  0  0  0
  5  6  2  0  0  0  0
  5  7  1  0  0  0  0
  7  8  1  0  0  0  0
  7 13  1  0  0  0  0
  8  9  1  0  0  0  0
  8 11  1  0  0  0  0
  9 10  1  0  0  0  0
 10 11  1  0  0  0  0
 12 14  1  0  0  0  0
 12 15  1  0  0  0  0
M  END
>  <CHROM.0>
-60.13825751,-71.56973715,-68.87538243,-43.97094666,-175.99916329,-65.35008939
-64.78102354,-171.87699488,-169.03203556

>  <CHROM.1>
108.21279253,159.63816977,-146.11015433,-28.84711654,15.65744586,-16.52326826
-0.54417070,0.78711598,-0.89618466

>  <Name>
P137722453

>  <RI>
0

>  <Rbt.Current_Directory>
/home/fstefaniak/projects/zuza/docking/adenine/4TZX

>  <Rbt.Executable>
rbdock ($Id: //depot/dev/client3/rdock/2013.1/src/exe/rbdock.cxx#4 $)

>  <Rbt.Library>
libRbt.so (2013.1, Build901 2013/11/27)

>  <Rbt.Parameter_File>
/home/fstefaniak/progs/rDock//data/scripts/dock_solv.prm

>  <Rbt.Receptor>
4tzx.prm

>  <SCORE>
-46.9901

>  <SCORE.INTER>
-26.0239

>  <SCORE.INTER.CONST>
1

>  <SCORE.INTER.POLAR>
-3.16118

>  <SCORE.INTER.ROT>
3

>  <SCORE.INTER.SOLV>
11.4426

>  <SCORE.INTER.VDW>
-16.2262

>  <SCORE.INTER.norm>
-2.16866

>  <SCORE.INTRA>
0.112368

>  <SCORE.INTRA.DIHEDRAL>
-1.65084

>  <SCORE.INTRA.DIHEDRAL.0>
4.78512

>  <SCORE.INTRA.POLAR>
0.261758

>  <SCORE.INTRA.POLAR.0>
-0.261758

>  <SCORE.INTRA.REPUL>
0

>  <SCORE.INTRA.REPUL.0>
0

>  <SCORE.INTRA.SOLV>
0.17955

>  <SCORE.INTRA.SOLV.lig_0>
-14.0225

>  <SCORE.INTRA.VDW>
-0.0419652

>  <SCORE.INTRA.VDW.0>
-1.15575

>  <SCORE.INTRA.norm>
0.00936401

>  <SCORE.RESTR>
0

>  <SCORE.RESTR.CAVITY>
0

>  <SCORE.RESTR.norm>
0

>  <SCORE.SYSTEM>
-21.0785

>  <SCORE.SYSTEM.CONST>
0

>  <SCORE.SYSTEM.DIHEDRAL>
5.39728

>  <SCORE.SYSTEM.POLAR>
-3.02018

>  <SCORE.SYSTEM.SOLV>
-0.151467

>  <SCORE.SYSTEM.VDW>
-5.73372

>  <SCORE.SYSTEM.norm>
-1.75655

>  <SCORE.heavy>
12

>  <SCORE.norm>
-3.91584

$$$$
P137722453
 OpenBabel12072022113D
libRbt.so/2013.1/901 2013/11/27
 15 16  0  0  0  0  0  0  0  0999 V2000
  -27.5281   12.3309  -16.9913 C   0  0  0  0  0  0  0  0  0  0  0  0
  -28.2088   13.5581  -17.6286 C   0  0  0  0  0  0  0  0  0  0  0  0
  -27.5975   14.4452  -16.5137 C   0  0  0  0  0  0  0  0  0  0  0  0
  -27.3553   13.1491  -15.6971 C   0  0  0  0  0  0  0  0  0  0  0  0
  -28.5208   15.5657  -15.8783 C   0  0  0  0  0  0  0  0  0  0  0  0
  -29.0361   15.5309  -14.7604 O   0  0  0  0  0  0  0  0  0  0  0  0
  -28.7188   16.6378  -16.7291 N   0  0  0  0  0  0  0  0  0  0  0  0
  -29.5924   17.7744  -16.3855 C   0  0  0  0  0  0  0  0  0  0  0  0
  -30.3266   18.4148  -17.5675 C   0  0  0  0  0  0  0  0  0  0  0  0
  -31.6142   17.9809  -17.0746 O   0  0  0  0  0  0  0  0  0  0  0  0
  -30.9972   17.3954  -15.9024 C   0  0  0  0  0  0  0  0  0  0  0  0
  -26.2756   14.9463  -16.9865 N   0  0  0  0  0  0  0  0  0  0  0  0
  -28.3217   16.5141  -17.6579 H   0  0  0  0  0  0  0  0  0  0  0  0
  -25.9364   15.7673  -16.4826 H   0  0  0  0  0  0  0  0  0  0  0  0
  -26.2948   15.2298  -17.9682 H   0  0  0  0  0  0  0  0  0  0  0  0
  1  2  1  0  0  0  0
  1  4  1  0  0  0  0
  2  3  1  0  0  0  0
  3  4  1  0  0  0  0
  3  5  1  0  0  0  0
  3 12  1  0  0  0  0
  5  6  2  0  0  0  0
  5  7  1  0  0  0  0
  7  8  1  0  0  0  0
  7 13  1  0  0  0  0
  8  9  1  0  0  0  0
  8 11  1  0  0  0  0
  9 10  1  0  0  0  0
 10 11  1  0  0  0  0
 12 14  1  0  0  0  0
 12 15  1  0  0  0  0
M  END
>  <CHROM.0>
-59.80333254,-71.18344628,-69.20275710,-43.23282576,-57.81639626,-63.65596724
-68.72896592,-61.63556353,-168.99655915

>  <CHROM.1>
106.14496580,160.61753032,-146.80897163,-28.82801208,15.67581121,-16.51921661
0.58765697,-0.75427481,2.31812966

>  <Name>
P137722453

>  <RI>
0

>  <Rbt.Current_Directory>
/home/fstefaniak/projects/zuza/docking/adenine/4TZX

>  <Rbt.Executable>
rbdock ($Id: //depot/dev/client3/rdock/2013.1/src/exe/rbdock.cxx#4 $)

>  <Rbt.Library>
libRbt.so (2013.1, Build901 2013/11/27)

>  <Rbt.Parameter_File>
/home/fstefaniak/progs/rDock//data/scripts/dock_solv.prm

>  <Rbt.Receptor>
4tzx.prm

>  <SCORE>
-46.9205

>  <SCORE.INTER>
-25.928

>  <SCORE.INTER.CONST>
1

>  <SCORE.INTER.POLAR>
-3.11617

>  <SCORE.INTER.ROT>
3

>  <SCORE.INTER.SOLV>
11.4722

>  <SCORE.INTER.VDW>
-16.3221

>  <SCORE.INTER.norm>
-2.16066

>  <SCORE.INTRA>
0.061347

>  <SCORE.INTRA.DIHEDRAL>
-1.66551

>  <SCORE.INTRA.DIHEDRAL.0>
4.78512

>  <SCORE.INTRA.POLAR>
0.261758

>  <SCORE.INTRA.POLAR.0>
-0.261758

>  <SCORE.INTRA.REPUL>
0

>  <SCORE.INTRA.REPUL.0>
0

>  <SCORE.INTRA.SOLV>
0.187325

>  <SCORE.INTRA.SOLV.lig_0>
-14.0225

>  <SCORE.INTRA.VDW>
-0.0895361

>  <SCORE.INTRA.VDW.0>
-1.15575

>  <SCORE.INTRA.norm>
0.00511225

>  <SCORE.RESTR>
0

>  <SCORE.RESTR.CAVITY>
0

>  <SCORE.RESTR.norm>
0

>  <SCORE.SYSTEM>
-21.0539

>  <SCORE.SYSTEM.CONST>
0

>  <SCORE.SYSTEM.DIHEDRAL>
5.32503

>  <SCORE.SYSTEM.POLAR>
-3.04335

>  <SCORE.SYSTEM.SOLV>
0.160648

>  <SCORE.SYSTEM.VDW>
-5.71999

>  <SCORE.SYSTEM.norm>
-1.75449

>  <SCORE.heavy>
12

>  <SCORE.norm>
-3.91004

$$$$
P137755480
 OpenBabel12072022113D
libRbt.so/2013.1/901 2013/11/27
 18 19  0  0  0  0  0  0  0  0999 V2000
  -25.1954   17.4450  -15.9350 C   0  0  0  0  0  0  0  0  0  0  0  0
  -24.4275   16.7553  -16.8671 C   0  0  0  0  0  0  0  0  0  0  0  0
  -24.8896   15.5484  -17.3939 C   0  0  0  0  0  0  0  0  0  0  0  0
  -26.1114   15.0040  -16.9800 C   0  0  0  0  0  0  0  0  0  0  0  0
  -26.9223   15.7404  -16.1005 C   0  0  0  0  0  0  0  0  0  0  0  0
  -26.4382   16.9430  -15.5540 C   0  0  0  0  0  0  0  0  0  0  0  0
  -28.3017   15.2308  -15.7110 C   0  0  2  0  0  0  0  0  0  0  0  0
  -28.7197   13.9608  -16.4667 C   0  0  0  0  0  0  0  0  0  0  0  0
  -27.5192   13.0748  -16.7336 C   0  0  0  0  0  0  0  0  0  0  0  0
  -26.5591   13.8017  -17.5542 N   0  0  0  0  0  0  0  0  0  0  0  0
  -29.3868   16.2879  -15.9069 C   0  0  0  0  0  0  0  0  0  0  0  0
  -30.1389   16.6363  -14.9958 O   0  0  0  0  0  0  0  0  0  0  0  0
  -29.4900   16.7898  -17.1997 N   0  0  0  0  0  0  0  0  0  0  0  0
  -30.4886   17.7358  -17.5091 N   0  0  0  0  0  0  0  0  0  0  0  0
  -25.7791   13.2205  -17.8553 H   0  0  0  0  0  0  0  0  0  0  0  0
  -28.8377   16.4881  -17.9251 H   0  0  0  0  0  0  0  0  0  0  0  0
  -31.0062   17.3805  -18.3185 H   0  0  0  0  0  0  0  0  0  0  0  0
  -30.0073   18.5649  -17.8815 H   0  0  0  0  0  0  0  0  0  0  0  0
  1  2  2  0  0  0  0
  1  6  1  0  0  0  0
  2  3  1  0  0  0  0
  3  4  2  0  0  0  0
  4  5  1  0  0  0  0
  4 10  1  0  0  0  0
  5  6  2  0  0  0  0
  5  7  1  0  0  0  0
  7  8  1  0  0  0  0
  7 11  1  6  0  0  0
  8  9  1  0  0  0  0
  9 10  1  0  0  0  0
 10 15  1  0  0  0  0
 11 12  2  0  0  0  0
 11 13  1  0  0  0  0
 13 14  1  0  0  0  0
 13 16  1  0  0  0  0
 14 17  1  0  0  0  0
 14 18  1  0  0  0  0
M  END
>  <CHROM.0>
-62.35779175,12.29117914,-70.63891084,-43.59795299,-58.36512338,-61.12866687
-65.96173872,-63.70780591,-168.73622199

>  <CHROM.1>
-124.72915180,-127.00642137,-27.57060472,15.79188233,-16.51981964,-0.23830766
0.06123882,0.14287645

>  <Name>
P137755480

>  <RI>
0

>  <Rbt.Current_Directory>
/home/fstefaniak/projects/zuza/docking/adenine/4TZX

>  <Rbt.Executable>
rbdock ($Id: //depot/dev/client3/rdock/2013.1/src/exe/rbdock.cxx#4 $)

>  <Rbt.Library>
libRbt.so (2013.1, Build901 2013/11/27)

>  <Rbt.Parameter_File>
/home/fstefaniak/progs/rDock//data/scripts/dock_solv.prm

>  <Rbt.Receptor>
4tzx.prm

>  <SCORE>
-42.8519

>  <SCORE.INTER>
-24.9991

>  <SCORE.INTER.CONST>
1

>  <SCORE.INTER.POLAR>
-4.08306

>  <SCORE.INTER.ROT>
2

>  <SCORE.INTER.SOLV>
14.6167

>  <SCORE.INTER.VDW>
-12.8614

>  <SCORE.INTER.norm>
-1.78565

>  <SCORE.INTRA>
-0.257676

>  <SCORE.INTRA.DIHEDRAL>
-0.0590106

>  <SCORE.INTRA.DIHEDRAL.0>
1.45772

>  <SCORE.INTRA.POLAR>
0

>  <SCORE.INTRA.POLAR.0>
0

>  <SCORE.INTRA.REPUL>
0

>  <SCORE.INTRA.REPUL.0>
0

>  <SCORE.INTRA.SOLV>
-0.212786

>  <SCORE.INTRA.SOLV.lig_0>
-18.135

>  <SCORE.INTRA.VDW>
-0.121778

>  <SCORE.INTRA.VDW.0>
-1.14155

>  <SCORE.INTRA.norm>
-0.0184054

>  <SCORE.RESTR>
0

>  <SCORE.RESTR.CAVITY>
0

>  <SCORE.RESTR.norm>
0

>  <SCORE.SYSTEM>
-17.5951

>  <SCORE.SYSTEM.CONST>
0

>  <SCORE.SYSTEM.DIHEDRAL>
11.0095

>  <SCORE.SYSTEM.POLAR>
-3.20373

>  <SCORE.SYSTEM.SOLV>
0.326522

>  <SCORE.SYSTEM.VDW>
-4.82965

>  <SCORE.SYSTEM.norm>
-1.25679

>  <SCORE.heavy>
14

>  <SCORE.norm>
-3.06085

$$$$
P137755480
 OpenBabel12072022113D
libRbt.so/2013.1/901 2013/11/27
 18 19  0  0  0  0  0  0  0  0999 V2000
  -28.7914   15.4260  -16.3499 C   0  0  0  0  0  0  0  0  0  0  0  0
  -27.6582   16.2274  -16.2619 C   0  0  0  0  0  0  0  0  0  0  0  0
  -26.3900   15.6447  -16.2781 C   0  0  0  0  0  0  0  0  0  0  0  0
  -26.2382   14.2552  -16.3585 C   0  0  0  0  0  0  0  0  0  0  0  0
  -27.3794   13.4538  -16.5286 C   0  0  0  0  0  0  0  0  0  0  0  0
  -28.6548   14.0459  -16.4851 C   0  0  0  0  0  0  0  0  0  0  0  0
  -27.2464   11.9513  -16.7253 C   0  0  2  0  0  0  0  0  0  0  0  0
  -25.7906   11.4774  -16.8472 C   0  0  0  0  0  0  0  0  0  0  0  0
  -24.8782   12.3145  -15.9730 C   0  0  0  0  0  0  0  0  0  0  0  0
  -24.9453   13.7054  -16.4025 N   0  0  0  0  0  0  0  0  0  0  0  0
  -28.0188   11.4559  -17.9465 C   0  0  0  0  0  0  0  0  0  0  0  0
  -29.1013   10.8760  -17.8503 O   0  0  0  0  0  0  0  0  0  0  0  0
  -27.3857   11.6676  -19.1664 N   0  0  0  0  0  0  0  0  0  0  0  0
  -27.9833   11.2083  -20.3579 N   0  0  0  0  0  0  0  0  0  0  0  0
  -24.2725   14.2988  -15.9209 H   0  0  0  0  0  0  0  0  0  0  0  0
  -26.4956   12.1665  -19.2073 H   0  0  0  0  0  0  0  0  0  0  0  0
  -27.4849   11.6458  -21.1385 H   0  0  0  0  0  0  0  0  0  0  0  0
  -28.9179   11.6350  -20.4051 H   0  0  0  0  0  0  0  0  0  0  0  0
  1  2  2  0  0  0  0
  1  6  1  0  0  0  0
  2  3  1  0  0  0  0
  3  4  2  0  0  0  0
  4  5  1  0  0  0  0
  4 10  1  0  0  0  0
  5  6  2  0  0  0  0
  5  7  1  0  0  0  0
  7  8  1  0  0  0  0
  7 11  1  6  0  0  0
  8  9  1  0  0  0  0
  9 10  1  0  0  0  0
 10 15  1  0  0  0  0
 11 12  2  0  0  0  0
 11 13  1  0  0  0  0
 13 14  1  0  0  0  0
 13 16  1  0  0  0  0
 14 17  1  0  0  0  0
 14 18  1  0  0  0  0
M  END
>  <CHROM.0>
-60.30707990,37.59288996,-64.50707064,-43.35452622,-57.23418623,-177.82648321
-69.02991705,60.13362793,-169.17053346

>  <CHROM.1>
-102.94944572,167.05009989,-27.17150470,13.04638240,-17.18331932,1.32302765
-0.39941049,0.50601643

>  <Name>
P137755480

>  <RI>
0

>  <Rbt.Current_Directory>
/home/fstefaniak/projects/zuza/docking/adenine/4TZX

>  <Rbt.Executable>
rbdock ($Id: //depot/dev/client3/rdock/2013.1/src/exe/rbdock.cxx#4 $)

>  <Rbt.Library>
libRbt.so (2013.1, Build901 2013/11/27)

>  <Rbt.Parameter_File>
/home/fstefaniak/progs/rDock//data/scripts/dock_solv.prm

>  <Rbt.Receptor>
4tzx.prm

>  <SCORE>
-40.9195

>  <SCORE.INTER>
-23.3913

>  <SCORE.INTER.CONST>
1

>  <SCORE.INTER.POLAR>
-2.50354

>  <SCORE.INTER.ROT>
2

>  <SCORE.INTER.SOLV>
9.82325

>  <SCORE.INTER.VDW>
-15.4568

>  <SCORE.INTER.norm>
-1.67081

>  <SCORE.INTRA>
0.54792

>  <SCORE.INTRA.DIHEDRAL>
-0.035952

>  <SCORE.INTRA.DIHEDRAL.0>
1.45772

>  <SCORE.INTRA.POLAR>
0

>  <SCORE.INTRA.POLAR.0>
0

>  <SCORE.INTRA.REPUL>
0

>  <SCORE.INTRA.REPUL.0>
0

>  <SCORE.INTRA.SOLV>
-0.208555

>  <SCORE.INTRA.SOLV.lig_0>
-18.135

>  <SCORE.INTRA.VDW>
0.670173

>  <SCORE.INTRA.VDW.0>
-1.14155

>  <SCORE.INTRA.norm>
0.0391371

>  <SCORE.RESTR>
0.677258

>  <SCORE.RESTR.CAVITY>
0.677258

>  <SCORE.RESTR.norm>
0.0483756

>  <SCORE.SYSTEM>
-18.7533

>  <SCORE.SYSTEM.CONST>
0

>  <SCORE.SYSTEM.DIHEDRAL>
6.56262

>  <SCORE.SYSTEM.POLAR>
-3.17777

>  <SCORE.SYSTEM.SOLV>
0.0250821

>  <SCORE.SYSTEM.VDW>
-4.10556

>  <SCORE.SYSTEM.norm>
-1.33952

>  <SCORE.heavy>
14

>  <SCORE.norm>
-2.92282

$$$$
P137755480
 OpenBabel12072022113D
libRbt.so/2013.1/901 2013/11/27
 18 19  0  0  0  0  0  0  0  0999 V2000
  -25.1050   17.4692  -15.9416 C   0  0  0  0  0  0  0  0  0  0  0  0
  -24.4079   16.7629  -16.9159 C   0  0  0  0  0  0  0  0  0  0  0  0
  -24.9485   15.5910  -17.4473 C   0  0  0  0  0  0  0  0  0  0  0  0
  -26.1789   15.0979  -16.9965 C   0  0  0  0  0  0  0  0  0  0  0  0
  -26.9186   15.8541  -16.0721 C   0  0  0  0  0  0  0  0  0  0  0  0
  -26.3556   17.0201  -15.5221 C   0  0  0  0  0  0  0  0  0  0  0  0
  -28.3056   15.4038  -15.6389 C   0  0  2  0  0  0  0  0  0  0  0  0
  -28.8140   14.1715  -16.4018 C   0  0  0  0  0  0  0  0  0  0  0  0
  -27.6695   13.2343  -16.7321 C   0  0  0  0  0  0  0  0  0  0  0  0
  -26.7067   13.9309  -17.5756 N   0  0  0  0  0  0  0  0  0  0  0  0
  -29.3441   16.5160  -15.7721 C   0  0  0  0  0  0  0  0  0  0  0  0
  -30.1180   16.8072  -14.8592 O   0  0  0  0  0  0  0  0  0  0  0  0
  -29.3794   17.1396  -17.0146 N   0  0  0  0  0  0  0  0  0  0  0  0
  -30.3311   18.1485  -17.2682 N   0  0  0  0  0  0  0  0  0  0  0  0
  -25.9683   13.3191  -17.9179 H   0  0  0  0  0  0  0  0  0  0  0  0
  -28.7107   16.8815  -17.7419 H   0  0  0  0  0  0  0  0  0  0  0  0
  -30.5228   18.1421  -18.2744 H   0  0  0  0  0  0  0  0  0  0  0  0
  -29.8553   19.0488  -17.1238 H   0  0  0  0  0  0  0  0  0  0  0  0
  1  2  2  0  0  0  0
  1  6  1  0  0  0  0
  2  3  1  0  0  0  0
  3  4  2  0  0  0  0
  4  5  1  0  0  0  0
  4 10  1  0  0  0  0
  5  6  2  0  0  0  0
  5  7  1  0  0  0  0
  7  8  1  0  0  0  0
  7 11  1  6  0  0  0
  8  9  1  0  0  0  0
  9 10  1  0  0  0  0
 10 15  1  0  0  0  0
 11 12  2  0  0  0  0
 11 13  1  0  0  0  0
 13 14  1  0  0  0  0
 13 16  1  0  0  0  0
 14 17  1  0  0  0  0
 14 18  1  0  0  0  0
M  END
>  <CHROM.0>
-58.92852921,-60.63526517,-65.06776423,-43.66875710,-51.95572470,-63.94269575
-67.07877313,-59.13982127,-168.60960684

>  <CHROM.1>
-130.81392431,-152.04188693,-27.56741752,15.95726796,-16.46011469,-0.30650283
0.10768514,0.14563367

>  <Name>
P137755480

>  <RI>
0

>  <Rbt.Current_Directory>
/home/fstefaniak/projects/zuza/docking/adenine/4TZX

>  <Rbt.Executable>
rbdock ($Id: //depot/dev/client3/rdock/2013.1/src/exe/rbdock.cxx#4 $)

>  <Rbt.Library>
libRbt.so (2013.1, Build901 2013/11/27)

>  <Rbt.Parameter_File>
/home/fstefaniak/progs/rDock//data/scripts/dock_solv.prm

>  <Rbt.Receptor>
4tzx.prm

>  <SCORE>
-40.5582

>  <SCORE.INTER>
-19.3052

>  <SCORE.INTER.CONST>
1

>  <SCORE.INTER.POLAR>
-2.53044

>  <SCORE.INTER.ROT>
2

>  <SCORE.INTER.SOLV>
14.6436

>  <SCORE.INTER.VDW>
-14.2499

>  <SCORE.INTER.norm>
-1.37894

>  <SCORE.INTRA>
-0.195913

>  <SCORE.INTRA.DIHEDRAL>
0.115932

>  <SCORE.INTRA.DIHEDRAL.0>
1.45772

>  <SCORE.INTRA.POLAR>
0

>  <SCORE.INTRA.POLAR.0>
0

>  <SCORE.INTRA.REPUL>
0

>  <SCORE.INTRA.REPUL.0>
0

>  <SCORE.INTRA.SOLV>
-0.158511

>  <SCORE.INTRA.SOLV.lig_0>
-18.135

>  <SCORE.INTRA.VDW>
-0.174623

>  <SCORE.INTRA.VDW.0>
-1.14155

>  <SCORE.INTRA.norm>
-0.0139938

>  <SCORE.RESTR>
0

>  <SCORE.RESTR.CAVITY>
0

>  <SCORE.RESTR.norm>
0

>  <SCORE.SYSTEM>
-21.0571

>  <SCORE.SYSTEM.CONST>
0

>  <SCORE.SYSTEM.DIHEDRAL>
4.61128

>  <SCORE.SYSTEM.POLAR>
-3.06501

>  <SCORE.SYSTEM.SOLV>
0.189534

>  <SCORE.SYSTEM.VDW>
-5.42165

>  <SCORE.SYSTEM.norm>
-1.50408

>  <SCORE.heavy>
14

>  <SCORE.norm>
-2.89701

$$$$
P137848586
 OpenBabel12072022113D
libRbt.so/2013.1/901 2013/11/27
 15 15  0  0  0  0  0  0  0  0999 V2000
  -27.1722   15.7703  -16.3361 C   0  0  0  0  0  0  0  0  0  0  0  0
  -28.6842   15.6768  -16.1794 C   0  0  2  0  0  0  0  0  0  0  0  0
  -29.4304   16.7524  -16.9502 C   0  0  0  0  0  0  0  0  0  0  0  0
  -29.5072   17.8839  -15.9562 C   0  0  0  0  0  0  0  0  0  0  0  0
  -29.6612   17.1452  -14.6392 C   0  0  1  0  0  0  0  0  0  0  0  0
  -29.0121   15.8690  -14.7911 O   0  0  0  0  0  0  0  0  0  0  0  0
  -29.0877   17.9230  -13.4509 C   0  0  0  0  0  0  0  0  0  0  0  0
  -29.7152   18.1279  -12.4138 O   0  0  0  0  0  0  0  0  0  0  0  0
  -27.7611   18.2714  -13.6533 N   0  0  0  0  0  0  0  0  0  0  0  0
  -26.9708   19.0526  -12.8633 C   0  0  0  0  0  0  0  0  0  0  0  0
  -25.9470   19.5741  -13.2903 O   0  0  0  0  0  0  0  0  0  0  0  0
  -27.3683   19.2196  -11.5831 N   0  0  0  0  0  0  0  0  0  0  0  0
  -27.4288   18.1857  -14.6077 H   0  0  0  0  0  0  0  0  0  0  0  0
  -27.0497   20.0443  -11.0814 H   0  0  0  0  0  0  0  0  0  0  0  0
  -27.5582   18.3847  -11.0476 H   0  0  0  0  0  0  0  0  0  0  0  0
  2  3  1  0  0  0  0
  2  6  1  0  0  0  0
  2  1  1  1  0  0  0
  3  4  1  0  0  0  0
  4  5  1  0  0  0  0
  5  6  1  0  0  0  0
  5  7  1  1  0  0  0
  7  8  2  0  0  0  0
  7  9  1  0  0  0  0
  9 10  1  0  0  0  0
  9 13  1  0  0  0  0
 10 11  2  0  0  0  0
 10 12  1  0  0  0  0
 12 14  1  0  0  0  0
 12 15  1  0  0  0  0
M  END
>  <CHROM.0>
-56.87135343,-61.66007799,-67.46139351,-43.80973980,-59.03279941,-171.76563505
-66.33599918,-58.46109591,-168.38225457

>  <CHROM.1>
129.46906202,-156.15218329,-28.32878594,17.61871801,-14.30374705,-1.90308271
0.24811098,1.00226214

>  <Name>
P137848586

>  <RI>
0

>  <Rbt.Current_Directory>
/home/fstefaniak/projects/zuza/docking/adenine/4TZX

>  <Rbt.Executable>
rbdock ($Id: //depot/dev/client3/rdock/2013.1/src/exe/rbdock.cxx#4 $)

>  <Rbt.Library>
libRbt.so (2013.1, Build901 2013/11/27)

>  <Rbt.Parameter_File>
/home/fstefaniak/progs/rDock//data/scripts/dock_solv.prm

>  <Rbt.Receptor>
4tzx.prm

>  <SCORE>
-44.4935

>  <SCORE.INTER>
-23.7854

>  <SCORE.INTER.CONST>
1

>  <SCORE.INTER.POLAR>
-3.83919

>  <SCORE.INTER.ROT>
2

>  <SCORE.INTER.SOLV>
15.9592

>  <SCORE.INTER.VDW>
-13.3127

>  <SCORE.INTER.norm>
-1.98212

>  <SCORE.INTRA>
0.156625

>  <SCORE.INTRA.DIHEDRAL>
-0.759025

>  <SCORE.INTRA.DIHEDRAL.0>
2.10533

>  <SCORE.INTRA.POLAR>
0.177843

>  <SCORE.INTRA.POLAR.0>
-0.177843

>  <SCORE.INTRA.REPUL>
0

>  <SCORE.INTRA.REPUL.0>
0

>  <SCORE.INTRA.SOLV>
0.272634

>  <SCORE.INTRA.SOLV.lig_0>
-18.9997

>  <SCORE.INTRA.VDW>
-0.204846

>  <SCORE.INTRA.VDW.0>
-0.42601

>  <SCORE.INTRA.norm>
0.0130521

>  <SCORE.RESTR>
0

>  <SCORE.RESTR.CAVITY>
0

>  <SCORE.RESTR.norm>
0

>  <SCORE.SYSTEM>
-20.8648

>  <SCORE.SYSTEM.CONST>
0

>  <SCORE.SYSTEM.DIHEDRAL>
4.71129

>  <SCORE.SYSTEM.POLAR>
-3.05546

>  <SCORE.SYSTEM.SOLV>
0.0743867

>  <SCORE.SYSTEM.VDW>
-5.32017

>  <SCORE.SYSTEM.norm>
-1.73873

>  <SCORE.heavy>
12

>  <SCORE.norm>
-3.70779

$$$$
P137848586
 OpenBabel12072022113D
libRbt.so/2013.1/901 2013/11/27
 15 15  0  0  0  0  0  0  0  0999 V2000
  -30.6181   19.4184  -17.6587 C   0  0  0  0  0  0  0  0  0  0  0  0
  -31.0473   17.9806  -17.3980 C   0  0  2  0  0  0  0  0  0  0  0  0
  -31.7088   17.7930  -16.0432 C   0  0  0  0  0  0  0  0  0  0  0  0
  -30.5398   17.4925  -15.1390 C   0  0  0  0  0  0  0  0  0  0  0  0
  -29.6224   16.6995  -16.0519 C   0  0  1  0  0  0  0  0  0  0  0  0
  -29.8739   17.1468  -17.3972 O   0  0  0  0  0  0  0  0  0  0  0  0
  -28.1433   16.8490  -15.6835 C   0  0  0  0  0  0  0  0  0  0  0  0
  -27.7463   17.5664  -14.7676 O   0  0  0  0  0  0  0  0  0  0  0  0
  -27.3362   16.0094  -16.4359 N   0  0  0  0  0  0  0  0  0  0  0  0
  -25.9740   15.9529  -16.4541 C   0  0  0  0  0  0  0  0  0  0  0  0
  -25.3625   15.4347  -17.3815 O   0  0  0  0  0  0  0  0  0  0  0  0
  -25.3298   16.4914  -15.3959 N   0  0  0  0  0  0  0  0  0  0  0  0
  -27.7738   15.6039  -17.2560 H   0  0  0  0  0  0  0  0  0  0  0  0
  -25.5866   17.4291  -15.0992 H   0  0  0  0  0  0  0  0  0  0  0  0
  -24.3811   16.1867  -15.2311 H   0  0  0  0  0  0  0  0  0  0  0  0
  2  3  1  0  0  0  0
  2  6  1  0  0  0  0
  2  1  1  1  0  0  0
  3  4  1  0  0  0  0
  4  5  1  0  0  0  0
  5  6  1  0  0  0  0
  5  7  1  1  0  0  0
  7  8  2  0  0  0  0
  7  9  1  0  0  0  0
  9 10  1  0  0  0  0
  9 13  1  0  0  0  0
 10 11  2  0  0  0  0
 10 12  1  0  0  0  0
 12 14  1  0  0  0  0
 12 15  1  0  0  0  0
M  END
>  <CHROM.0>
57.63959803,-170.43180404,-65.21992340,-42.84159018,-56.38144186,-57.23256278
-65.91386377,-57.43417692,-169.00464835

>  <CHROM.1>
-1.90900951,-49.67191173,-28.55700455,17.07217861,-16.32501973,-3.09306757
-0.38395403,1.48430835

>  <Name>
P137848586

>  <RI>
0

>  <Rbt.Current_Directory>
/home/fstefaniak/projects/zuza/docking/adenine/4TZX

>  <Rbt.Executable>
rbdock ($Id: //depot/dev/client3/rdock/2013.1/src/exe/rbdock.cxx#4 $)

>  <Rbt.Library>
libRbt.so (2013.1, Build901 2013/11/27)

>  <Rbt.Parameter_File>
/home/fstefaniak/progs/rDock//data/scripts/dock_solv.prm

>  <Rbt.Receptor>
4tzx.prm

>  <SCORE>
-44.3998

>  <SCORE.INTER>
-27.1255

>  <SCORE.INTER.CONST>
1

>  <SCORE.INTER.POLAR>
-2.86035

>  <SCORE.INTER.ROT>
2

>  <SCORE.INTER.SOLV>
14.0343

>  <SCORE.INTER.VDW>
-18.1606

>  <SCORE.INTER.norm>
-2.26046

>  <SCORE.INTRA>
0.0908517

>  <SCORE.INTRA.DIHEDRAL>
-0.817761

>  <SCORE.INTRA.DIHEDRAL.0>
2.10533

>  <SCORE.INTRA.POLAR>
0.177843

>  <SCORE.INTRA.POLAR.0>
-0.177843

>  <SCORE.INTRA.REPUL>
0

>  <SCORE.INTRA.REPUL.0>
0

>  <SCORE.INTRA.SOLV>
-0.250616

>  <SCORE.INTRA.SOLV.lig_0>
-18.9997

>  <SCORE.INTRA.VDW>
0.0203736

>  <SCORE.INTRA.VDW.0>
-0.42601

>  <SCORE.INTRA.norm>
0.00757097

>  <SCORE.RESTR>
0

>  <SCORE.RESTR.CAVITY>
0

>  <SCORE.RESTR.norm>
0

>  <SCORE.SYSTEM>
-17.3651

>  <SCORE.SYSTEM.CONST>
0

>  <SCORE.SYSTEM.DIHEDRAL>
4.84153

>  <SCORE.SYSTEM.POLAR>
-2.49553

>  <SCORE.SYSTEM.SOLV>
0.179421

>  <SCORE.SYSTEM.VDW>
-4.93196

>  <SCORE.SYSTEM.norm>
-1.44709

>  <SCORE.heavy>
12

>  <SCORE.norm>
-3.69998

$$$$
P137848586
 OpenBabel12072022113D
libRbt.so/2013.1/901 2013/11/27
 15 15  0  0  0  0  0  0  0  0999 V2000
  -27.9064   15.0357  -16.4658 C   0  0  0  0  0  0  0  0  0  0  0  0
  -29.3605   15.4249  -16.2348 C   0  0  2  0  0  0  0  0  0  0  0  0
  -29.7971   16.6180  -17.0679 C   0  0  0  0  0  0  0  0  0  0  0  0
  -29.4570   17.7884  -16.1797 C   0  0  0  0  0  0  0  0  0  0  0  0
  -29.7353   17.2330  -14.7949 C   0  0  1  0  0  0  0  0  0  0  0  0
  -29.5164   15.8112  -14.8571 O   0  0  0  0  0  0  0  0  0  0  0  0
  -28.8710   17.8818  -13.7096 C   0  0  0  0  0  0  0  0  0  0  0  0
  -29.2219   17.9751  -12.5351 O   0  0  0  0  0  0  0  0  0  0  0  0
  -27.6255   18.2516  -14.1935 N   0  0  0  0  0  0  0  0  0  0  0  0
  -26.6478   18.9462  -13.5449 C   0  0  0  0  0  0  0  0  0  0  0  0
  -25.7464   19.5115  -14.1534 O   0  0  0  0  0  0  0  0  0  0  0  0
  -26.7175   18.9765  -12.1961 N   0  0  0  0  0  0  0  0  0  0  0  0
  -27.5376   18.2677  -15.2038 H   0  0  0  0  0  0  0  0  0  0  0  0
  -25.9423   19.3850  -11.6808 H   0  0  0  0  0  0  0  0  0  0  0  0
  -27.2517   18.2469  -11.7465 H   0  0  0  0  0  0  0  0  0  0  0  0
  2  3  1  0  0  0  0
  2  6  1  0  0  0  0
  2  1  1  1  0  0  0
  3  4  1  0  0  0  0
  4  5  1  0  0  0  0
  5  6  1  0  0  0  0
  5  7  1  1  0  0  0
  7  8  2  0  0  0  0
  7  9  1  0  0  0  0
  9 10  1  0  0  0  0
  9 13  1  0  0  0  0
 10 11  2  0  0  0  0
 10 12  1  0  0  0  0
 12 14  1  0  0  0  0
 12 15  1  0  0  0  0
M  END
>  <CHROM.0>
-60.06375347,-61.88225984,-64.31617814,-43.45017163,-61.48197907,-59.90299479
-67.21007012,-55.54327126,-168.72654615

>  <CHROM.1>
152.47009987,172.41514424,-28.34851580,17.46218702,-14.62692213,-2.15172363
0.43521995,1.07212587

>  <Name>
P137848586

>  <RI>
0

>  <Rbt.Current_Directory>
/home/fstefaniak/projects/zuza/docking/adenine/4TZX

>  <Rbt.Executable>
rbdock ($Id: //depot/dev/client3/rdock/2013.1/src/exe/rbdock.cxx#4 $)

>  <Rbt.Library>
libRbt.so (2013.1, Build901 2013/11/27)

>  <Rbt.Parameter_File>
/home/fstefaniak/progs/rDock//data/scripts/dock_solv.prm

>  <Rbt.Receptor>
4tzx.prm

>  <SCORE>
-44.2865

>  <SCORE.INTER>
-26.9439

>  <SCORE.INTER.CONST>
1

>  <SCORE.INTER.POLAR>
-3.94069

>  <SCORE.INTER.ROT>
2

>  <SCORE.INTER.SOLV>
15.7104

>  <SCORE.INTER.VDW>
-14.9971

>  <SCORE.INTER.norm>
-2.24533

>  <SCORE.INTRA>
3.78389

>  <SCORE.INTRA.DIHEDRAL>
0.0275683

>  <SCORE.INTRA.DIHEDRAL.0>
2.10533

>  <SCORE.INTRA.POLAR>
0.177843

>  <SCORE.INTRA.POLAR.0>
-0.177843

>  <SCORE.INTRA.REPUL>
0

>  <SCORE.INTRA.REPUL.0>
0

>  <SCORE.INTRA.SOLV>
0.200017

>  <SCORE.INTRA.SOLV.lig_0>
-18.9997

>  <SCORE.INTRA.VDW>
3.06543

>  <SCORE.INTRA.VDW.0>
-0.42601

>  <SCORE.INTRA.norm>
0.315324

>  <SCORE.RESTR>
0

>  <SCORE.RESTR.CAVITY>
0

>  <SCORE.RESTR.norm>
0

>  <SCORE.SYSTEM>
-21.1265

>  <SCORE.SYSTEM.CONST>
0

>  <SCORE.SYSTEM.DIHEDRAL>
4.353

>  <SCORE.SYSTEM.POLAR>
-3.05498

>  <SCORE.SYSTEM.SOLV>
0.190551

>  <SCORE.SYSTEM.VDW>
-5.41554

>  <SCORE.SYSTEM.norm>
-1.76054

>  <SCORE.heavy>
12

>  <SCORE.norm>
-3.69054

$$$$
P137853014
 OpenBabel12072022113D
libRbt.so/2013.1/901 2013/11/27
 12 12  0  0  0  0  0  0  0  0999 V2000
  -30.6474   18.4051  -18.9764 C   0  0  0  0  0  0  0  0  0  0  0  0
  -30.2873   18.5288  -17.5091 C   0  0  1  0  0  0  0  0  0  0  0  0
  -31.4374   18.2099  -16.5727 C   0  0  0  0  0  0  0  0  0  0  0  0
  -30.7033   17.8363  -15.3068 C   0  0  0  0  0  0  0  0  0  0  0  0
  -29.4772   17.1127  -15.8404 C   0  0  2  0  0  0  0  0  0  0  0  0
  -29.2440   17.5931  -17.1820 O   0  0  0  0  0  0  0  0  0  0  0  0
  -29.6397   15.5859  -15.8620 C   0  0  0  0  0  0  0  0  0  0  0  0
  -30.5426   14.9939  -15.2808 O   0  0  0  0  0  0  0  0  0  0  0  0
  -28.6227   14.9652  -16.5468 N   0  0  0  0  0  0  0  0  0  0  0  0
  -28.4155   13.6646  -16.7831 C   0  0  0  0  0  0  0  0  0  0  0  0
  -28.1847   12.5554  -17.0226 N   0  0  0  0  0  0  0  0  0  0  0  0
  -28.0088   15.5839  -17.0658 H   0  0  0  0  0  0  0  0  0  0  0  0
  2  1  1  6  0  0  0
  2  3  1  0  0  0  0
  2  6  1  0  0  0  0
  3  4  1  0  0  0  0
  4  5  1  0  0  0  0
  5  6  1  0  0  0  0
  5  7  1  6  0  0  0
  7  8  2  0  0  0  0
  7  9  1  0  0  0  0
  9 10  1  0  0  0  0
  9 12  1  0  0  0  0
 10 11  3  0  0  0  0
M  END
>  <CHROM.0>
-60.51084015,-179.16346834,-65.56730433,-43.58420346,-57.99737685,-63.29536842
-65.72035395,-63.86242290,-168.58724516

>  <CHROM.1>
-13.20680545,-29.76128002,16.34721562,-16.64108307,-2.37577306,-1.00882913
2.27090620

>  <Name>
P137853014

>  <RI>
0

>  <Rbt.Current_Directory>
/home/fstefaniak/projects/zuza/docking/adenine/4TZX

>  <Rbt.Executable>
rbdock ($Id: //depot/dev/client3/rdock/2013.1/src/exe/rbdock.cxx#4 $)

>  <Rbt.Library>
libRbt.so (2013.1, Build901 2013/11/27)

>  <Rbt.Parameter_File>
/home/fstefaniak/progs/rDock//data/scripts/dock_solv.prm

>  <Rbt.Receptor>
4tzx.prm

>  <SCORE>
-46.2175

>  <SCORE.INTER>
-25.3634

>  <SCORE.INTER.CONST>
1

>  <SCORE.INTER.POLAR>
-1.86767

>  <SCORE.INTER.ROT>
1

>  <SCORE.INTER.SOLV>
11.7306

>  <SCORE.INTER.VDW>
-18.8602

>  <SCORE.INTER.norm>
-2.30576

>  <SCORE.INTRA>
0.204631

>  <SCORE.INTRA.DIHEDRAL>
-0.881281

>  <SCORE.INTRA.DIHEDRAL.0>
1.83225

>  <SCORE.INTRA.POLAR>
0.179096

>  <SCORE.INTRA.POLAR.0>
-0.204101

>  <SCORE.INTRA.REPUL>
0

>  <SCORE.INTRA.REPUL.0>
0

>  <SCORE.INTRA.SOLV>
-0.206521

>  <SCORE.INTRA.SOLV.lig_0>
-14.5823

>  <SCORE.INTRA.VDW>
0.139605

>  <SCORE.INTRA.VDW.0>
-0.489206

>  <SCORE.INTRA.norm>
0.0186028

>  <SCORE.RESTR>
0

>  <SCORE.RESTR.CAVITY>
0

>  <SCORE.RESTR.norm>
0

>  <SCORE.SYSTEM>
-21.0588

>  <SCORE.SYSTEM.CONST>
0

>  <SCORE.SYSTEM.DIHEDRAL>
4.34033

>  <SCORE.SYSTEM.POLAR>
-3.04168

>  <SCORE.SYSTEM.SOLV>
0.152018

>  <SCORE.SYSTEM.VDW>
-5.39771

>  <SCORE.SYSTEM.norm>
-1.91443

>  <SCORE.heavy>
11

>  <SCORE.norm>
-4.2016

$$$$
P137853014
 OpenBabel12072022113D
libRbt.so/2013.1/901 2013/11/27
 12 12  0  0  0  0  0  0  0  0999 V2000
  -30.6440   18.3730  -18.9774 C   0  0  0  0  0  0  0  0  0  0  0  0
  -30.2922   18.4993  -17.5083 C   0  0  1  0  0  0  0  0  0  0  0  0
  -31.4459   18.1760  -16.5779 C   0  0  0  0  0  0  0  0  0  0  0  0
  -30.7170   17.8064  -15.3077 C   0  0  0  0  0  0  0  0  0  0  0  0
  -29.4849   17.0878  -15.8343 C   0  0  2  0  0  0  0  0  0  0  0  0
  -29.2467   17.5682  -17.1750 O   0  0  0  0  0  0  0  0  0  0  0  0
  -29.6406   15.5603  -15.8557 C   0  0  0  0  0  0  0  0  0  0  0  0
  -30.5319   14.9633  -15.2618 O   0  0  0  0  0  0  0  0  0  0  0  0
  -28.6313   14.9452  -16.5567 N   0  0  0  0  0  0  0  0  0  0  0  0
  -28.4218   13.6460  -16.7980 C   0  0  0  0  0  0  0  0  0  0  0  0
  -28.1895   12.5382  -17.0426 N   0  0  0  0  0  0  0  0  0  0  0  0
  -28.0282   15.5675  -17.0841 H   0  0  0  0  0  0  0  0  0  0  0  0
  2  1  1  6  0  0  0
  2  3  1  0  0  0  0
  2  6  1  0  0  0  0
  3  4  1  0  0  0  0
  4  5  1  0  0  0  0
  5  6  1  0  0  0  0
  5  7  1  6  0  0  0
  7  8  2  0  0  0  0
  7  9  1  0  0  0  0
  9 10  1  0  0  0  0
  9 12  1  0  0  0  0
 10 11  3  0  0  0  0
M  END
>  <CHROM.0>
-61.02315318,-179.24289890,-68.07712746,-43.67717881,-54.50464214,-62.11847246
-66.71764566,-58.86737229,-169.09473502

>  <CHROM.1>
-14.38697734,-29.76510012,16.32101253,-16.64197561,-2.38012514,-1.01034648
2.26822695

>  <Name>
P137853014

>  <RI>
0

>  <Rbt.Current_Directory>
/home/fstefaniak/projects/zuza/docking/adenine/4TZX

>  <Rbt.Executable>
rbdock ($Id: //depot/dev/client3/rdock/2013.1/src/exe/rbdock.cxx#4 $)

>  <Rbt.Library>
libRbt.so (2013.1, Build901 2013/11/27)

>  <Rbt.Parameter_File>
/home/fstefaniak/progs/rDock//data/scripts/dock_solv.prm

>  <Rbt.Receptor>
4tzx.prm

>  <SCORE>
-46.2138

>  <SCORE.INTER>
-25.3627

>  <SCORE.INTER.CONST>
1

>  <SCORE.INTER.POLAR>
-1.91295

>  <SCORE.INTER.ROT>
1

>  <SCORE.INTER.SOLV>
11.7429

>  <SCORE.INTER.VDW>
-18.713

>  <SCORE.INTER.norm>
-2.3057

>  <SCORE.INTRA>
0.181867

>  <SCORE.INTRA.DIHEDRAL>
-0.849748

>  <SCORE.INTRA.DIHEDRAL.0>
1.83225

>  <SCORE.INTRA.POLAR>
0.172288

>  <SCORE.INTRA.POLAR.0>
-0.204101

>  <SCORE.INTRA.REPUL>
0

>  <SCORE.INTRA.REPUL.0>
0

>  <SCORE.INTRA.SOLV>
-0.195796

>  <SCORE.INTRA.SOLV.lig_0>
-14.5823

>  <SCORE.INTRA.VDW>
0.118859

>  <SCORE.INTRA.VDW.0>
-0.489206

>  <SCORE.INTRA.norm>
0.0165333

>  <SCORE.RESTR>
0

>  <SCORE.RESTR.CAVITY>
0

>  <SCORE.RESTR.norm>
0

>  <SCORE.SYSTEM>
-21.033

>  <SCORE.SYSTEM.CONST>
0

>  <SCORE.SYSTEM.DIHEDRAL>
4.51805

>  <SCORE.SYSTEM.POLAR>
-3.03895

>  <SCORE.SYSTEM.SOLV>
0.158462

>  <SCORE.SYSTEM.VDW>
-5.45101

>  <SCORE.SYSTEM.norm>
-1.91209

>  <SCORE.heavy>
11

>  <SCORE.norm>
-4.20126

$$$$
P137853014
 OpenBabel12072022113D
libRbt.so/2013.1/901 2013/11/27
 12 12  0  0  0  0  0  0  0  0999 V2000
  -30.6265   18.3989  -18.9753 C   0  0  0  0  0  0  0  0  0  0  0  0
  -30.2965   18.5231  -17.5010 C   0  0  1  0  0  0  0  0  0  0  0  0
  -31.4623   18.1934  -16.5881 C   0  0  0  0  0  0  0  0  0  0  0  0
  -30.7504   17.8237  -15.3084 C   0  0  0  0  0  0  0  0  0  0  0  0
  -29.5081   17.1111  -15.8186 C   0  0  2  0  0  0  0  0  0  0  0  0
  -29.2523   17.5954  -17.1546 O   0  0  0  0  0  0  0  0  0  0  0  0
  -29.6576   15.5830  -15.8456 C   0  0  0  0  0  0  0  0  0  0  0  0
  -30.5524   14.9810  -15.2622 O   0  0  0  0  0  0  0  0  0  0  0  0
  -28.6389   14.9738  -16.5381 N   0  0  0  0  0  0  0  0  0  0  0  0
  -28.4218   13.6760  -16.7807 C   0  0  0  0  0  0  0  0  0  0  0  0
  -28.1827   12.5698  -17.0259 N   0  0  0  0  0  0  0  0  0  0  0  0
  -28.0330   15.5998  -17.0577 H   0  0  0  0  0  0  0  0  0  0  0  0
  2  1  1  6  0  0  0
  2  3  1  0  0  0  0
  2  6  1  0  0  0  0
  3  4  1  0  0  0  0
  4  5  1  0  0  0  0
  5  6  1  0  0  0  0
  5  7  1  6  0  0  0
  7  8  2  0  0  0  0
  7  9  1  0  0  0  0
  9 10  1  0  0  0  0
  9 12  1  0  0  0  0
 10 11  3  0  0  0  0
M  END
>  <CHROM.0>
-61.46355468,-179.25301971,-64.48086893,-43.24677681,-57.67357402,-58.27428885
-66.79787410,-59.58388920,-169.13042562

>  <CHROM.1>
-14.64215715,-29.77438138,16.34509879,-16.63323068,-2.36564095,-0.99983050
2.28303953

>  <Name>
P137853014

>  <RI>
0

>  <Rbt.Current_Directory>
/home/fstefaniak/projects/zuza/docking/adenine/4TZX

>  <Rbt.Executable>
rbdock ($Id: //depot/dev/client3/rdock/2013.1/src/exe/rbdock.cxx#4 $)

>  <Rbt.Library>
libRbt.so (2013.1, Build901 2013/11/27)

>  <Rbt.Parameter_File>
/home/fstefaniak/progs/rDock//data/scripts/dock_solv.prm

>  <Rbt.Receptor>
4tzx.prm

>  <SCORE>
-46.207

>  <SCORE.INTER>
-25.3672

>  <SCORE.INTER.CONST>
1

>  <SCORE.INTER.POLAR>
-1.86787

>  <SCORE.INTER.ROT>
1

>  <SCORE.INTER.SOLV>
11.7501

>  <SCORE.INTER.VDW>
-18.8686

>  <SCORE.INTER.norm>
-2.30611

>  <SCORE.INTRA>
0.18058

>  <SCORE.INTRA.DIHEDRAL>
-0.842609

>  <SCORE.INTRA.DIHEDRAL.0>
1.83225

>  <SCORE.INTRA.POLAR>
0.170719

>  <SCORE.INTRA.POLAR.0>
-0.204101

>  <SCORE.INTRA.REPUL>
0

>  <SCORE.INTRA.REPUL.0>
0

>  <SCORE.INTRA.SOLV>
-0.193468

>  <SCORE.INTRA.SOLV.lig_0>
-14.5823

>  <SCORE.INTRA.VDW>
0.118175

>  <SCORE.INTRA.VDW.0>
-0.489206

>  <SCORE.INTRA.norm>
0.0164164

>  <SCORE.RESTR>
0

>  <SCORE.RESTR.CAVITY>
0

>  <SCORE.RESTR.norm>
0

>  <SCORE.SYSTEM>
-21.0204

>  <SCORE.SYSTEM.CONST>
0

>  <SCORE.SYSTEM.DIHEDRAL>
4.25887

>  <SCORE.SYSTEM.POLAR>
-3.04646

>  <SCORE.SYSTEM.SOLV>
0.167061

>  <SCORE.SYSTEM.VDW>
-5.33404

>  <SCORE.SYSTEM.norm>
-1.91095

>  <SCORE.heavy>
11

>  <SCORE.norm>
-4.20064

$$$$
P142916272
 OpenBabel12072022113D
libRbt.so/2013.1/901 2013/11/27
 10  9  0  0  0  0  0  0  0  0999 V2000
  -27.3117   12.1940  -17.7206 C   0  0  0  0  0  0  0  0  0  0  0  0
  -27.7511   13.5482  -17.6281 O   0  0  0  0  0  0  0  0  0  0  0  0
  -27.7634   14.0327  -16.3600 C   0  0  0  0  0  0  0  0  0  0  0  0
  -27.2389   13.5268  -15.3803 O   0  0  0  0  0  0  0  0  0  0  0  0
  -28.4882   15.2759  -16.2681 C   0  0  0  0  0  0  0  0  0  0  0  0
  -29.1237   16.4104  -16.1709 C   0  0  0  0  0  0  0  0  0  0  0  0
  -29.8644   17.7328  -16.0576 C   0  0  0  0  0  0  0  0  0  0  0  0
  -30.6538   18.0276  -17.3292 C   0  0  0  0  0  0  0  0  0  0  0  0
  -29.7968   18.0777  -18.4668 O   0  0  0  0  0  0  0  0  0  0  0  0
  -29.4463   17.1800  -18.6058 H   0  0  0  0  0  0  0  0  0  0  0  0
  1  2  1  0  0  0  0
  2  3  1  0  0  0  0
  3  4  2  0  0  0  0
  3  5  1  0  0  0  0
  5  6  3  0  0  0  0
  6  7  1  0  0  0  0
  7  8  1  0  0  0  0
  8  9  1  0  0  0  0
  9 10  1  0  0  0  0
M  END
>  <CHROM.0>
-55.87902233,40.44201705,-68.54680509,-43.54314745,62.68551789,-55.98752044
-164.49774967,61.51979311,-168.17861348

>  <CHROM.1>
13.43431079,-133.08462009,64.26645040,-58.77845011,66.63697704,-28.65240551
15.40498178,-16.88306931,0.11172189,1.06813079,-1.79798346

>  <Name>
P142916272

>  <RI>
0

>  <Rbt.Current_Directory>
/home/fstefaniak/projects/zuza/docking/adenine/4TZX

>  <Rbt.Executable>
rbdock ($Id: //depot/dev/client3/rdock/2013.1/src/exe/rbdock.cxx#4 $)

>  <Rbt.Library>
libRbt.so (2013.1, Build901 2013/11/27)

>  <Rbt.Parameter_File>
/home/fstefaniak/progs/rDock//data/scripts/dock_solv.prm

>  <Rbt.Receptor>
4tzx.prm

>  <SCORE>
nan

>  <SCORE.INTER>
-18.1831

>  <SCORE.INTER.CONST>
1

>  <SCORE.INTER.POLAR>
-2.25273

>  <SCORE.INTER.ROT>
4

>  <SCORE.INTER.SOLV>
8.40198

>  <SCORE.INTER.VDW>
-13.6803

>  <SCORE.INTER.norm>
-2.02035

>  <SCORE.INTRA>
nan

>  <SCORE.INTRA.DIHEDRAL>
nan

>  <SCORE.INTRA.DIHEDRAL.0>
nan

>  <SCORE.INTRA.POLAR>
0

>  <SCORE.INTRA.POLAR.0>
0

>  <SCORE.INTRA.REPUL>
0

>  <SCORE.INTRA.REPUL.0>
0

>  <SCORE.INTRA.SOLV>
0.0792087

>  <SCORE.INTRA.SOLV.lig_0>
-9.51006

>  <SCORE.INTRA.VDW>
-0.118271

>  <SCORE.INTRA.VDW.0>
1.1994

>  <SCORE.INTRA.norm>
nan

>  <SCORE.RESTR>
0

>  <SCORE.RESTR.CAVITY>
0

>  <SCORE.RESTR.norm>
0

>  <SCORE.SYSTEM>
-17.3074

>  <SCORE.SYSTEM.CONST>
0

>  <SCORE.SYSTEM.DIHEDRAL>
7.20943

>  <SCORE.SYSTEM.POLAR>
-3.18988

>  <SCORE.SYSTEM.SOLV>
-0.0828044

>  <SCORE.SYSTEM.VDW>
-3.28087

>  <SCORE.SYSTEM.norm>
-1.92304

>  <SCORE.heavy>
9

>  <SCORE.norm>
nan

$$$$
P142916272
 OpenBabel12072022113D
libRbt.so/2013.1/901 2013/11/27
 10  9  0  0  0  0  0  0  0  0999 V2000
  -29.4672   17.7870  -12.9145 C   0  0  0  0  0  0  0  0  0  0  0  0
  -29.8325   18.0983  -14.2581 O   0  0  0  0  0  0  0  0  0  0  0  0
  -29.8942   17.0137  -15.0723 C   0  0  0  0  0  0  0  0  0  0  0  0
  -29.8344   15.8422  -14.7332 O   0  0  0  0  0  0  0  0  0  0  0  0
  -30.0530   17.3899  -16.4553 C   0  0  0  0  0  0  0  0  0  0  0  0
  -30.2195   17.7418  -17.6997 C   0  0  0  0  0  0  0  0  0  0  0  0
  -30.4137   18.1521  -19.1503 C   0  0  0  0  0  0  0  0  0  0  0  0
  -31.6387   19.0479  -19.3056 C   0  0  0  0  0  0  0  0  0  0  0  0
  -32.7757   18.4809  -18.6600 O   0  0  0  0  0  0  0  0  0  0  0  0
  -32.9258   17.6034  -19.0543 H   0  0  0  0  0  0  0  0  0  0  0  0
  1  2  1  0  0  0  0
  2  3  1  0  0  0  0
  3  4  2  0  0  0  0
  3  5  1  0  0  0  0
  5  6  3  0  0  0  0
  6  7  1  0  0  0  0
  7  8  1  0  0  0  0
  8  9  1  0  0  0  0
  9 10  1  0  0  0  0
M  END
>  <CHROM.0>
-56.80028718,59.61895233,-59.40981585,-43.99548467,-179.66707665,-61.58047826
-66.57572806,-57.07819838,-50.54456859

>  <CHROM.1>
9.61493005,-60.92295126,-67.79225044,-49.35864822,-57.99361029,-30.50582614
17.73227562,-16.44023303,0.91587858,-0.94885602,1.25848977

>  <Name>
P142916272

>  <RI>
0

>  <Rbt.Current_Directory>
/home/fstefaniak/projects/zuza/docking/adenine/4TZX

>  <Rbt.Executable>
rbdock ($Id: //depot/dev/client3/rdock/2013.1/src/exe/rbdock.cxx#4 $)

>  <Rbt.Library>
libRbt.so (2013.1, Build901 2013/11/27)

>  <Rbt.Parameter_File>
/home/fstefaniak/progs/rDock//data/scripts/dock_solv.prm

>  <Rbt.Receptor>
4tzx.prm

>  <SCORE>
nan

>  <SCORE.INTER>
8.8966

>  <SCORE.INTER.CONST>
1

>  <SCORE.INTER.POLAR>
-2.9731

>  <SCORE.INTER.ROT>
4

>  <SCORE.INTER.SOLV>
9.9237

>  <SCORE.INTER.VDW>
6.26683

>  <SCORE.INTER.norm>
0.988511

>  <SCORE.INTRA>
nan

>  <SCORE.INTRA.DIHEDRAL>
nan

>  <SCORE.INTRA.DIHEDRAL.0>
nan

>  <SCORE.INTRA.POLAR>
0

>  <SCORE.INTRA.POLAR.0>
0

>  <SCORE.INTRA.REPUL>
0

>  <SCORE.INTRA.REPUL.0>
0

>  <SCORE.INTRA.SOLV>
0.166438

>  <SCORE.INTRA.SOLV.lig_0>
-9.51006

>  <SCORE.INTRA.VDW>
0.0814236

>  <SCORE.INTRA.VDW.0>
1.1994

>  <SCORE.INTRA.norm>
nan

>  <SCORE.RESTR>
0

>  <SCORE.RESTR.CAVITY>
0

>  <SCORE.RESTR.norm>
0

>  <SCORE.SYSTEM>
-12.8159

>  <SCORE.SYSTEM.CONST>
0

>  <SCORE.SYSTEM.DIHEDRAL>
3.97463

>  <SCORE.SYSTEM.POLAR>
-1.74671

>  <SCORE.SYSTEM.SOLV>
0.253813

>  <SCORE.SYSTEM.VDW>
-4.13106

>  <SCORE.SYSTEM.norm>
-1.42399

>  <SCORE.heavy>
9

>  <SCORE.norm>
nan

$$$$
P142916272
 OpenBabel12072022113D
libRbt.so/2013.1/901 2013/11/27
 10  9  0  0  0  0  0  0  0  0999 V2000
  -31.5529   18.6069  -12.5814 C   0  0  0  0  0  0  0  0  0  0  0  0
  -31.4894   18.7976  -13.9939 O   0  0  0  0  0  0  0  0  0  0  0  0
  -30.7578   17.8539  -14.6398 C   0  0  0  0  0  0  0  0  0  0  0  0
  -30.2540   16.8569  -14.1467 O   0  0  0  0  0  0  0  0  0  0  0  0
  -30.6260   18.1470  -16.0456 C   0  0  0  0  0  0  0  0  0  0  0  0
  -30.5332   18.4094  -17.3194 C   0  0  0  0  0  0  0  0  0  0  0  0
  -30.4249   18.7152  -18.8044 C   0  0  0  0  0  0  0  0  0  0  0  0
  -31.6705   18.2477  -19.5508 C   0  0  0  0  0  0  0  0  0  0  0  0
  -32.8545   18.5590  -18.8213 O   0  0  0  0  0  0  0  0  0  0  0  0
  -33.0009   19.5183  -18.9012 H   0  0  0  0  0  0  0  0  0  0  0  0
  1  2  1  0  0  0  0
  2  3  1  0  0  0  0
  3  4  2  0  0  0  0
  3  5  1  0  0  0  0
  5  6  3  0  0  0  0
  6  7  1  0  0  0  0
  7  8  1  0  0  0  0
  8  9  1  0  0  0  0
  9 10  1  0  0  0  0
M  END
>  <CHROM.0>
-58.55200563,-61.19424450,-63.64965554,52.10007553,-56.65834093,-60.41598460
-66.29083714,-55.03081492,-169.13240515

>  <CHROM.1>
5.20503988,-63.86912195,-95.97236000,42.23472057,73.91999846,-31.18907833
18.25368303,-16.18823608,1.45109299,-0.48305154,1.58905266

>  <Name>
P142916272

>  <RI>
0

>  <Rbt.Current_Directory>
/home/fstefaniak/projects/zuza/docking/adenine/4TZX

>  <Rbt.Executable>
rbdock ($Id: //depot/dev/client3/rdock/2013.1/src/exe/rbdock.cxx#4 $)

>  <Rbt.Library>
libRbt.so (2013.1, Build901 2013/11/27)

>  <Rbt.Parameter_File>
/home/fstefaniak/progs/rDock//data/scripts/dock_solv.prm

>  <Rbt.Receptor>
4tzx.prm

>  <SCORE>
nan

>  <SCORE.INTER>
-6.89998

>  <SCORE.INTER.CONST>
1

>  <SCORE.INTER.POLAR>
-3.39566

>  <SCORE.INTER.ROT>
4

>  <SCORE.INTER.SOLV>
9.9231

>  <SCORE.INTER.VDW>
-2.85548

>  <SCORE.INTER.norm>
-0.766665

>  <SCORE.INTRA>
nan

>  <SCORE.INTRA.DIHEDRAL>
nan

>  <SCORE.INTRA.DIHEDRAL.0>
nan

>  <SCORE.INTRA.POLAR>
0

>  <SCORE.INTRA.POLAR.0>
0

>  <SCORE.INTRA.REPUL>
0

>  <SCORE.INTRA.REPUL.0>
0

>  <SCORE.INTRA.SOLV>
0.217355

>  <SCORE.INTRA.SOLV.lig_0>
-9.51006

>  <SCORE.INTRA.VDW>
0.043622

>  <SCORE.INTRA.VDW.0>
1.1994

>  <SCORE.INTRA.norm>
nan

>  <SCORE.RESTR>
0

>  <SCORE.RESTR.CAVITY>
0

>  <SCORE.RESTR.norm>
0

>  <SCORE.SYSTEM>
-18.0024

>  <SCORE.SYSTEM.CONST>
0

>  <SCORE.SYSTEM.DIHEDRAL>
3.35739

>  <SCORE.SYSTEM.POLAR>
-2.49486

>  <SCORE.SYSTEM.SOLV>
0.140668

>  <SCORE.SYSTEM.VDW>
-4.85141

>  <SCORE.SYSTEM.norm>
-2.00027

>  <SCORE.heavy>
9

>  <SCORE.norm>
nan

$$$$
P150368952
 OpenBabel12072022113D
libRbt.so/2013.1/901 2013/11/27
 11 11  0  0  0  0  0  0  0  0999 V2000
  -31.0373   16.6407  -15.5086 C   0  0  0  0  0  0  0  0  0  0  0  0
  -30.6137   18.0037  -16.1114 C   0  0  0  0  0  0  0  0  0  0  0  0
  -29.2202   17.5826  -15.5811 C   0  0  0  0  0  0  0  0  0  0  0  0
  -29.8354   16.6117  -14.6876 O   0  0  0  0  0  0  0  0  0  0  0  0
  -30.7279   18.1028  -17.6882 C   0  0  0  0  0  0  0  0  0  0  0  0
  -30.1481   17.4060  -18.5196 O   0  0  0  0  0  0  0  0  0  0  0  0
  -31.5786   19.0892  -18.1177 N   0  0  0  0  0  0  0  0  0  0  0  0
  -31.1941   19.1755  -15.4387 O   0  0  0  0  0  0  0  0  0  0  0  0
  -32.0602   19.6675  -17.4369 H   0  0  0  0  0  0  0  0  0  0  0  0
  -31.7197   19.2326  -19.1074 H   0  0  0  0  0  0  0  0  0  0  0  0
  -31.0130   19.0137  -14.4932 H   0  0  0  0  0  0  0  0  0  0  0  0
  1  2  1  0  0  0  0
  1  4  1  0  0  0  0
  2  3  1  0  0  0  0
  2  5  1  0  0  0  0
  2  8  1  0  0  0  0
  3  4  1  0  0  0  0
  5  6  2  0  0  0  0
  5  7  1  0  0  0  0
  7  9  1  0  0  0  0
  7 10  1  0  0  0  0
  8 11  1  0  0  0  0
M  END
>  <CHROM.0>
-58.43375146,-174.23326575,-66.82884599,-43.62999040,-57.07590667,-62.30807920
-67.12781597,-55.17685525,-168.67155359

>  <CHROM.1>
-59.98679559,49.78385528,-30.55939588,17.85184416,-16.44323512,-1.07918887
0.98246257,-1.57670273

>  <Name>
P150368952

>  <RI>
0

>  <Rbt.Current_Directory>
/home/fstefaniak/projects/zuza/docking/adenine/4TZX

>  <Rbt.Executable>
rbdock ($Id: //depot/dev/client3/rdock/2013.1/src/exe/rbdock.cxx#4 $)

>  <Rbt.Library>
libRbt.so (2013.1, Build901 2013/11/27)

>  <Rbt.Parameter_File>
/home/fstefaniak/progs/rDock//data/scripts/dock_solv.prm

>  <Rbt.Receptor>
4tzx.prm

>  <SCORE>
-50.6646

>  <SCORE.INTER>
-29.6567

>  <SCORE.INTER.CONST>
1

>  <SCORE.INTER.POLAR>
-4.6202

>  <SCORE.INTER.ROT>
1

>  <SCORE.INTER.SOLV>
11.2174

>  <SCORE.INTER.VDW>
-12.3763

>  <SCORE.INTER.norm>
-3.70708

>  <SCORE.INTRA>
-0.0318566

>  <SCORE.INTRA.DIHEDRAL>
-0.248568

>  <SCORE.INTRA.DIHEDRAL.0>
3.73381

>  <SCORE.INTRA.POLAR>
0.031258

>  <SCORE.INTRA.POLAR.0>
-0.136714

>  <SCORE.INTRA.REPUL>
0

>  <SCORE.INTRA.REPUL.0>
0

>  <SCORE.INTRA.SOLV>
-0.011181

>  <SCORE.INTRA.SOLV.lig_0>
-15.3538

>  <SCORE.INTRA.VDW>
-0.00825923

>  <SCORE.INTRA.VDW.0>
-0.0638601

>  <SCORE.INTRA.norm>
-0.00398207

>  <SCORE.RESTR>
0

>  <SCORE.RESTR.CAVITY>
0

>  <SCORE.RESTR.norm>
0

>  <SCORE.SYSTEM>
-20.976

>  <SCORE.SYSTEM.CONST>
0

>  <SCORE.SYSTEM.DIHEDRAL>
4.67586

>  <SCORE.SYSTEM.POLAR>
-3.06129

>  <SCORE.SYSTEM.SOLV>
0.160361

>  <SCORE.SYSTEM.VDW>
-5.39178

>  <SCORE.SYSTEM.norm>
-2.622

>  <SCORE.heavy>
8

>  <SCORE.norm>
-6.33307

$$$$
P150368952
 OpenBabel12072022113D
libRbt.so/2013.1/901 2013/11/27
 11 11  0  0  0  0  0  0  0  0999 V2000
  -31.0503   16.6510  -15.5262 C   0  0  0  0  0  0  0  0  0  0  0  0
  -30.6120   18.0146  -16.1169 C   0  0  0  0  0  0  0  0  0  0  0  0
  -29.2225   17.5723  -15.5935 C   0  0  0  0  0  0  0  0  0  0  0  0
  -29.8473   16.6003  -14.7079 O   0  0  0  0  0  0  0  0  0  0  0  0
  -30.7282   18.1299  -17.6925 C   0  0  0  0  0  0  0  0  0  0  0  0
  -30.1544   17.4374  -18.5317 O   0  0  0  0  0  0  0  0  0  0  0  0
  -31.5728   19.1262  -18.1109 N   0  0  0  0  0  0  0  0  0  0  0  0
  -31.1775   19.1867  -15.4320 O   0  0  0  0  0  0  0  0  0  0  0  0
  -32.0494   19.7010  -17.4237 H   0  0  0  0  0  0  0  0  0  0  0  0
  -31.7147   19.2802  -19.0989 H   0  0  0  0  0  0  0  0  0  0  0  0
  -31.0065   19.0084  -14.4876 H   0  0  0  0  0  0  0  0  0  0  0  0
  1  2  1  0  0  0  0
  1  4  1  0  0  0  0
  2  3  1  0  0  0  0
  2  5  1  0  0  0  0
  2  8  1  0  0  0  0
  3  4  1  0  0  0  0
  5  6  2  0  0  0  0
  5  7  1  0  0  0  0
  7  9  1  0  0  0  0
  7 10  1  0  0  0  0
  8 11  1  0  0  0  0
M  END
>  <CHROM.0>
-55.41163063,-173.91665550,-66.35768775,-42.58021519,-60.88090631,-174.10980449
-65.90523274,-61.05317206,-168.51428685

>  <CHROM.1>
-60.26687362,49.09208811,-30.56042940,17.86508652,-16.45029839,-1.07707776
0.99147656,-1.56866601

>  <Name>
P150368952

>  <RI>
0

>  <Rbt.Current_Directory>
/home/fstefaniak/projects/zuza/docking/adenine/4TZX

>  <Rbt.Executable>
rbdock ($Id: //depot/dev/client3/rdock/2013.1/src/exe/rbdock.cxx#4 $)

>  <Rbt.Library>
libRbt.so (2013.1, Build901 2013/11/27)

>  <Rbt.Parameter_File>
/home/fstefaniak/progs/rDock//data/scripts/dock_solv.prm

>  <Rbt.Receptor>
4tzx.prm

>  <SCORE>
-50.352

>  <SCORE.INTER>
-29.5734

>  <SCORE.INTER.CONST>
1

>  <SCORE.INTER.POLAR>
-4.61808

>  <SCORE.INTER.ROT>
1

>  <SCORE.INTER.SOLV>
11.2565

>  <SCORE.INTER.VDW>
-12.3408

>  <SCORE.INTER.norm>
-3.69667

>  <SCORE.INTRA>
-0.044089

>  <SCORE.INTRA.DIHEDRAL>
-0.276884

>  <SCORE.INTRA.DIHEDRAL.0>
3.73381

>  <SCORE.INTRA.POLAR>
0.0324871

>  <SCORE.INTRA.POLAR.0>
-0.136714

>  <SCORE.INTRA.REPUL>
0

>  <SCORE.INTRA.REPUL.0>
0

>  <SCORE.INTRA.SOLV>
-0.0116343

>  <SCORE.INTRA.SOLV.lig_0>
-15.3538

>  <SCORE.INTRA.VDW>
-0.010286

>  <SCORE.INTRA.VDW.0>
-0.0638601

>  <SCORE.INTRA.norm>
-0.00551112

>  <SCORE.RESTR>
0

>  <SCORE.RESTR.CAVITY>
0

>  <SCORE.RESTR.norm>
0

>  <SCORE.SYSTEM>
-20.7345

>  <SCORE.SYSTEM.CONST>
0

>  <SCORE.SYSTEM.DIHEDRAL>
4.84151

>  <SCORE.SYSTEM.POLAR>
-3.08936

>  <SCORE.SYSTEM.SOLV>
0.0437817

>  <SCORE.SYSTEM.VDW>
-5.15357

>  <SCORE.SYSTEM.norm>
-2.59181

>  <SCORE.heavy>
8

>  <SCORE.norm>
-6.294

$$$$
P150368952
 OpenBabel12072022113D
libRbt.so/2013.1/901 2013/11/27
 11 11  0  0  0  0  0  0  0  0999 V2000
  -31.0538   16.6512  -15.5142 C   0  0  0  0  0  0  0  0  0  0  0  0
  -30.5948   18.0180  -16.0813 C   0  0  0  0  0  0  0  0  0  0  0  0
  -29.2193   17.5613  -15.5337 C   0  0  0  0  0  0  0  0  0  0  0  0
  -29.8685   16.5841  -14.6716 O   0  0  0  0  0  0  0  0  0  0  0  0
  -30.6773   18.1505  -17.6576 C   0  0  0  0  0  0  0  0  0  0  0  0
  -30.1000   17.4552  -18.4921 O   0  0  0  0  0  0  0  0  0  0  0  0
  -31.4945   19.1666  -18.0827 N   0  0  0  0  0  0  0  0  0  0  0  0
  -31.1671   19.1865  -15.3959 O   0  0  0  0  0  0  0  0  0  0  0  0
  -31.9738   19.7438  -17.3994 H   0  0  0  0  0  0  0  0  0  0  0  0
  -31.6137   19.3326  -19.0718 H   0  0  0  0  0  0  0  0  0  0  0  0
  -31.0111   19.0004  -14.4505 H   0  0  0  0  0  0  0  0  0  0  0  0
  1  2  1  0  0  0  0
  1  4  1  0  0  0  0
  2  3  1  0  0  0  0
  2  5  1  0  0  0  0
  2  8  1  0  0  0  0
  3  4  1  0  0  0  0
  5  6  2  0  0  0  0
  5  7  1  0  0  0  0
  7  9  1  0  0  0  0
  7 10  1  0  0  0  0
  8 11  1  0  0  0  0
M  END
>  <CHROM.0>
-61.93845339,-176.29374175,-71.22851490,-43.77825324,-179.91522218,-64.14542515
-168.25479648,-58.77399258,-167.87082371

>  <CHROM.1>
-59.54293088,49.49051953,-30.53666906,17.87201807,-16.41502654,-1.11246117
1.00366646,-1.52913549

>  <Name>
P150368952

>  <RI>
0

>  <Rbt.Current_Directory>
/home/fstefaniak/projects/zuza/docking/adenine/4TZX

>  <Rbt.Executable>
rbdock ($Id: //depot/dev/client3/rdock/2013.1/src/exe/rbdock.cxx#4 $)

>  <Rbt.Library>
libRbt.so (2013.1, Build901 2013/11/27)

>  <Rbt.Parameter_File>
/home/fstefaniak/progs/rDock//data/scripts/dock_solv.prm

>  <Rbt.Receptor>
4tzx.prm

>  <SCORE>
-50.1629

>  <SCORE.INTER>
-29.5783

>  <SCORE.INTER.CONST>
1

>  <SCORE.INTER.POLAR>
-4.56073

>  <SCORE.INTER.ROT>
1

>  <SCORE.INTER.SOLV>
11.3313

>  <SCORE.INTER.VDW>
-12.5602

>  <SCORE.INTER.norm>
-3.69728

>  <SCORE.INTRA>
-0.0323299

>  <SCORE.INTRA.DIHEDRAL>
-0.237406

>  <SCORE.INTRA.DIHEDRAL.0>
3.73381

>  <SCORE.INTRA.POLAR>
0.0293452

>  <SCORE.INTRA.POLAR.0>
-0.136714

>  <SCORE.INTRA.REPUL>
0

>  <SCORE.INTRA.REPUL.0>
0

>  <SCORE.INTRA.SOLV>
-0.0104405

>  <SCORE.INTRA.SOLV.lig_0>
-15.3538

>  <SCORE.INTRA.VDW>
-0.00818031

>  <SCORE.INTRA.VDW.0>
-0.0638601

>  <SCORE.INTRA.norm>
-0.00404124

>  <SCORE.RESTR>
0

>  <SCORE.RESTR.CAVITY>
0

>  <SCORE.RESTR.norm>
0

>  <SCORE.SYSTEM>
-20.5523

>  <SCORE.SYSTEM.CONST>
0

>  <SCORE.SYSTEM.DIHEDRAL>
5.29433

>  <SCORE.SYSTEM.POLAR>
-3.01223

>  <SCORE.SYSTEM.SOLV>
-0.0638873

>  <SCORE.SYSTEM.VDW>
-5.40423

>  <SCORE.SYSTEM.norm>
-2.56903

>  <SCORE.heavy>
8

>  <SCORE.norm>
-6.27036

$$$$
P150397825
 OpenBabel12072022113D
libRbt.so/2013.1/901 2013/11/27
 15 15  0  0  0  0  0  0  0  0999 V2000
  -30.2298   18.2433  -17.9358 C   0  0  0  0  0  0  0  0  0  0  0  0
  -29.9479   17.0015  -17.5127 C   0  0  0  0  0  0  0  0  0  0  0  0
  -29.4437   16.5800  -16.1522 C   0  0  2  0  0  0  0  0  0  0  0  0
  -28.3208   15.5536  -16.2482 C   0  0  0  0  0  0  0  0  0  0  0  0
  -26.9763   15.9501  -16.3765 C   0  0  0  0  0  0  0  0  0  0  0  0
  -25.9557   15.0011  -16.4790 C   0  0  0  0  0  0  0  0  0  0  0  0
  -26.2770   13.6389  -16.4582 C   0  0  0  0  0  0  0  0  0  0  0  0
  -27.6087   13.2238  -16.3385 C   0  0  0  0  0  0  0  0  0  0  0  0
  -28.6229   14.1806  -16.2375 C   0  0  0  0  0  0  0  0  0  0  0  0
  -25.2090   12.6373  -16.5642 N   0  3  0  0  0  0  0  0  0  0  0  0
  -24.0459   13.0453  -16.6945 O   0  0  0  0  0  0  0  0  0  0  0  0
  -25.5329   11.4418  -16.5183 O   0  5  0  0  0  0  0  0  0  0  0  0
  -30.4996   16.0882  -15.2706 N   0  0  0  0  0  0  0  0  0  0  0  0
  -30.9553   15.2974  -15.7214 H   0  0  0  0  0  0  0  0  0  0  0  0
  -31.2136   16.8083  -15.1867 H   0  0  0  0  0  0  0  0  0  0  0  0
  1  2  2  0  0  0  0
  3  4  1  0  0  0  0
  3 13  1  0  0  0  0
  3  2  1  6  0  0  0
  4  5  2  0  0  0  0
  4  9  1  0  0  0  0
  5  6  1  0  0  0  0
  6  7  2  0  0  0  0
  7  8  1  0  0  0  0
  7 10  1  0  0  0  0
  8  9  2  0  0  0  0
 10 11  2  0  0  0  0
 10 12  1  0  0  0  0
 13 14  1  0  0  0  0
 13 15  1  0  0  0  0
M  CHG  2  10   1  12  -1
M  END
>  <CHROM.0>
-59.45536015,-62.77580351,-65.93474776,-44.03309327,-57.04196999,-65.99418809
-66.14213837,-58.29481704,-169.28279407

>  <CHROM.1>
87.26420748,58.30801989,-136.05105250,-27.55701881,14.75913720,-16.51596581
-2.44379658,-0.26313028,2.79299166

>  <Name>
P150397825

>  <RI>
0

>  <Rbt.Current_Directory>
/home/fstefaniak/projects/zuza/docking/adenine/4TZX

>  <Rbt.Executable>
rbdock ($Id: //depot/dev/client3/rdock/2013.1/src/exe/rbdock.cxx#4 $)

>  <Rbt.Library>
libRbt.so (2013.1, Build901 2013/11/27)

>  <Rbt.Parameter_File>
/home/fstefaniak/progs/rDock//data/scripts/dock_solv.prm

>  <Rbt.Receptor>
4tzx.prm

>  <SCORE>
-47.9921

>  <SCORE.INTER>
-26.9709

>  <SCORE.INTER.CONST>
1

>  <SCORE.INTER.POLAR>
-2.07837

>  <SCORE.INTER.ROT>
3

>  <SCORE.INTER.SOLV>
8.52853

>  <SCORE.INTER.VDW>
-19.4955

>  <SCORE.INTER.norm>
-2.07468

>  <SCORE.INTRA>
0.142308

>  <SCORE.INTRA.DIHEDRAL>
0.296441

>  <SCORE.INTRA.DIHEDRAL.0>
0.94999

>  <SCORE.INTRA.POLAR>
0

>  <SCORE.INTRA.POLAR.0>
0

>  <SCORE.INTRA.REPUL>
0

>  <SCORE.INTRA.REPUL.0>
0

>  <SCORE.INTRA.SOLV>
-0.0572317

>  <SCORE.INTRA.SOLV.lig_0>
-7.7991

>  <SCORE.INTRA.VDW>
0.0227037

>  <SCORE.INTRA.VDW.0>
-0.814318

>  <SCORE.INTRA.norm>
0.0109468

>  <SCORE.RESTR>
0.00369241

>  <SCORE.RESTR.CAVITY>
0.00369241

>  <SCORE.RESTR.norm>
0.000284032

>  <SCORE.SYSTEM>
-21.1672

>  <SCORE.SYSTEM.CONST>
0

>  <SCORE.SYSTEM.DIHEDRAL>
4.36868

>  <SCORE.SYSTEM.POLAR>
-3.02828

>  <SCORE.SYSTEM.SOLV>
0.180247

>  <SCORE.SYSTEM.VDW>
-5.53353

>  <SCORE.SYSTEM.norm>
-1.62825

>  <SCORE.heavy>
13

>  <SCORE.norm>
-3.6917

$$$$
P150397825
 OpenBabel12072022113D
libRbt.so/2013.1/901 2013/11/27
 15 15  0  0  0  0  0  0  0  0999 V2000
  -30.3560   18.5963  -17.7036 C   0  0  0  0  0  0  0  0  0  0  0  0
  -30.1174   17.3160  -17.3805 C   0  0  0  0  0  0  0  0  0  0  0  0
  -29.6024   16.7739  -16.0676 C   0  0  2  0  0  0  0  0  0  0  0  0
  -28.5251   15.7140  -16.2665 C   0  0  0  0  0  0  0  0  0  0  0  0
  -28.8578   14.3599  -16.4594 C   0  0  0  0  0  0  0  0  0  0  0  0
  -27.8620   13.3937  -16.6257 C   0  0  0  0  0  0  0  0  0  0  0  0
  -26.5167   13.7788  -16.5955 C   0  0  0  0  0  0  0  0  0  0  0  0
  -26.1646   15.1193  -16.3977 C   0  0  0  0  0  0  0  0  0  0  0  0
  -27.1677   16.0785  -16.2313 C   0  0  0  0  0  0  0  0  0  0  0  0
  -25.4662   12.7685  -16.7710 N   0  3  0  0  0  0  0  0  0  0  0  0
  -25.8183   11.5892  -16.9178 O   0  0  0  0  0  0  0  0  0  0  0  0
  -24.2881   13.1536  -16.7610 O   0  5  0  0  0  0  0  0  0  0  0  0
  -30.6589   16.2594  -15.1997 N   0  0  0  0  0  0  0  0  0  0  0  0
  -31.1851   15.5553  -15.7131 H   0  0  0  0  0  0  0  0  0  0  0  0
  -31.3166   17.0118  -15.0083 H   0  0  0  0  0  0  0  0  0  0  0  0
  1  2  2  0  0  0  0
  3  4  1  0  0  0  0
  3 13  1  0  0  0  0
  3  2  1  6  0  0  0
  4  5  2  0  0  0  0
  4  9  1  0  0  0  0
  5  6  1  0  0  0  0
  6  7  2  0  0  0  0
  7  8  1  0  0  0  0
  7 10  1  0  0  0  0
  8  9  2  0  0  0  0
 10 11  2  0  0  0  0
 10 12  1  0  0  0  0
 13 14  1  0  0  0  0
 13 15  1  0  0  0  0
M  CHG  2  10   1  12  -1
M  END
>  <CHROM.0>
-57.18904973,-63.47915429,-69.43319207,-44.34367306,-177.42601467,-63.49461505
-166.01768541,-58.05074650,-168.47876319

>  <CHROM.1>
-86.35095288,55.57132293,-136.00696470,-27.76774640,14.93717453,-16.56445325
-2.40501859,-0.22019873,2.93320256

>  <Name>
P150397825

>  <RI>
0

>  <Rbt.Current_Directory>
/home/fstefaniak/projects/zuza/docking/adenine/4TZX

>  <Rbt.Executable>
rbdock ($Id: //depot/dev/client3/rdock/2013.1/src/exe/rbdock.cxx#4 $)

>  <Rbt.Library>
libRbt.so (2013.1, Build901 2013/11/27)

>  <Rbt.Parameter_File>
/home/fstefaniak/progs/rDock//data/scripts/dock_solv.prm

>  <Rbt.Receptor>
4tzx.prm

>  <SCORE>
-47.4586

>  <SCORE.INTER>
-26.916

>  <SCORE.INTER.CONST>
1

>  <SCORE.INTER.POLAR>
-2.08682

>  <SCORE.INTER.ROT>
3

>  <SCORE.INTER.SOLV>
8.69933

>  <SCORE.INTER.VDW>
-19.4877

>  <SCORE.INTER.norm>
-2.07046

>  <SCORE.INTRA>
-0.037282

>  <SCORE.INTRA.DIHEDRAL>
0.249746

>  <SCORE.INTRA.DIHEDRAL.0>
0.94999

>  <SCORE.INTRA.POLAR>
0

>  <SCORE.INTRA.POLAR.0>
0

>  <SCORE.INTRA.REPUL>
0

>  <SCORE.INTRA.REPUL.0>
0

>  <SCORE.INTRA.SOLV>
-0.0719225

>  <SCORE.INTRA.SOLV.lig_0>
-7.7991

>  <SCORE.INTRA.VDW>
-0.126194

>  <SCORE.INTRA.VDW.0>
-0.814318

>  <SCORE.INTRA.norm>
-0.00286785

>  <SCORE.RESTR>
0.067754

>  <SCORE.RESTR.CAVITY>
0.067754

>  <SCORE.RESTR.norm>
0.00521185

>  <SCORE.SYSTEM>
-20.573

>  <SCORE.SYSTEM.CONST>
0

>  <SCORE.SYSTEM.DIHEDRAL>
5.26712

>  <SCORE.SYSTEM.POLAR>
-3.0306

>  <SCORE.SYSTEM.SOLV>
-0.0214213

>  <SCORE.SYSTEM.VDW>
-5.36192

>  <SCORE.SYSTEM.norm>
-1.58254

>  <SCORE.heavy>
13

>  <SCORE.norm>
-3.65066

$$$$
P150397825
 OpenBabel12072022113D
libRbt.so/2013.1/901 2013/11/27
 15 15  0  0  0  0  0  0  0  0999 V2000
  -30.5550   18.8112  -17.3719 C   0  0  0  0  0  0  0  0  0  0  0  0
  -30.1518   17.5450  -17.1853 C   0  0  0  0  0  0  0  0  0  0  0  0
  -29.7217   16.8922  -15.8924 C   0  0  2  0  0  0  0  0  0  0  0  0
  -28.6140   15.8672  -16.1071 C   0  0  0  0  0  0  0  0  0  0  0  0
  -27.2594   16.2489  -16.1347 C   0  0  0  0  0  0  0  0  0  0  0  0
  -26.2524   15.3035  -16.3473 C   0  0  0  0  0  0  0  0  0  0  0  0
  -26.5977   13.9608  -16.5395 C   0  0  0  0  0  0  0  0  0  0  0  0
  -27.9395   13.5617  -16.5229 C   0  0  0  0  0  0  0  0  0  0  0  0
  -28.9398   14.5148  -16.3104 C   0  0  0  0  0  0  0  0  0  0  0  0
  -25.5441   12.9630  -16.7620 N   0  3  0  0  0  0  0  0  0  0  0  0
  -24.3706   13.3603  -16.7953 O   0  0  0  0  0  0  0  0  0  0  0  0
  -25.8898   11.7813  -16.9048 O   0  5  0  0  0  0  0  0  0  0  0  0
  -30.8276   16.2891  -15.1528 N   0  0  0  0  0  0  0  0  0  0  0  0
  -31.2002   15.5164  -15.7008 H   0  0  0  0  0  0  0  0  0  0  0  0
  -31.5814   16.9692  -15.0847 H   0  0  0  0  0  0  0  0  0  0  0  0
  1  2  2  0  0  0  0
  3  4  1  0  0  0  0
  3 13  1  0  0  0  0
  3  2  1  6  0  0  0
  4  5  2  0  0  0  0
  4  9  1  0  0  0  0
  5  6  1  0  0  0  0
  6  7  2  0  0  0  0
  7  8  1  0  0  0  0
  7 10  1  0  0  0  0
  8  9  2  0  0  0  0
 10 11  2  0  0  0  0
 10 12  1  0  0  0  0
 13 14  1  0  0  0  0
 13 15  1  0  0  0  0
M  CHG  2  10   1  12  -1
M  END
>  <CHROM.0>
-60.26824789,-175.41626345,-64.58741763,-42.93120815,-176.35721271,-63.90214832
-67.79710828,-58.97516144,-168.70455338

>  <CHROM.1>
85.95776578,65.36578921,-145.35261053,-27.86566855,15.10453848,-16.46549859
-2.41604158,-0.22482833,2.96384119

>  <Name>
P150397825

>  <RI>
0

>  <Rbt.Current_Directory>
/home/fstefaniak/projects/zuza/docking/adenine/4TZX

>  <Rbt.Executable>
rbdock ($Id: //depot/dev/client3/rdock/2013.1/src/exe/rbdock.cxx#4 $)

>  <Rbt.Library>
libRbt.so (2013.1, Build901 2013/11/27)

>  <Rbt.Parameter_File>
/home/fstefaniak/progs/rDock//data/scripts/dock_solv.prm

>  <Rbt.Receptor>
4tzx.prm

>  <SCORE>
-47.3897

>  <SCORE.INTER>
-26.8132

>  <SCORE.INTER.CONST>
1

>  <SCORE.INTER.POLAR>
-2.11525

>  <SCORE.INTER.ROT>
3

>  <SCORE.INTER.SOLV>
8.87401

>  <SCORE.INTER.VDW>
-19.3827

>  <SCORE.INTER.norm>
-2.06256

>  <SCORE.INTRA>
0.631795

>  <SCORE.INTRA.DIHEDRAL>
0.943953

>  <SCORE.INTRA.DIHEDRAL.0>
0.94999

>  <SCORE.INTRA.POLAR>
0

>  <SCORE.INTRA.POLAR.0>
0

>  <SCORE.INTRA.REPUL>
0

>  <SCORE.INTRA.REPUL.0>
0

>  <SCORE.INTRA.SOLV>
-0.0383553

>  <SCORE.INTRA.SOLV.lig_0>
-7.7991

>  <SCORE.INTRA.VDW>
0.178996

>  <SCORE.INTRA.VDW.0>
-0.814318

>  <SCORE.INTRA.norm>
0.0485996

>  <SCORE.RESTR>
0

>  <SCORE.RESTR.CAVITY>
0

>  <SCORE.RESTR.norm>
0

>  <SCORE.SYSTEM>
-21.2083

>  <SCORE.SYSTEM.CONST>
0

>  <SCORE.SYSTEM.DIHEDRAL>
4.59733

>  <SCORE.SYSTEM.POLAR>
-3.05288

>  <SCORE.SYSTEM.SOLV>
-0.0345896

>  <SCORE.SYSTEM.VDW>
-5.48351

>  <SCORE.SYSTEM.norm>
-1.63141

>  <SCORE.heavy>
13

>  <SCORE.norm>
-3.64536

$$$$
P150510098
 OpenBabel12072022113D
libRbt.so/2013.1/901 2013/11/27
 11 11  0  0  0  0  0  0  0  0999 V2000
  -27.8377   12.9449  -16.6303 C   0  0  0  0  0  0  0  0  0  0  0  0
  -27.0512   12.4246  -15.4242 C   0  0  0  0  0  0  0  0  0  0  0  0
  -25.5973   12.9160  -15.4445 C   0  0  1  0  0  0  0  0  0  0  0  0
  -25.5591   14.3879  -15.5048 N   0  0  0  0  0  0  0  0  0  0  0  0
  -26.2529   14.9124  -16.6850 C   0  0  0  0  0  0  0  0  0  0  0  0
  -27.7201   14.4662  -16.7894 C   0  0  2  0  0  0  0  0  0  0  0  0
  -28.5654   15.1757  -15.8101 C   0  0  0  0  0  0  0  0  0  0  0  0
  -29.2582   15.7321  -15.0638 N   0  0  0  0  0  0  0  0  0  0  0  0
  -24.8647   12.3892  -14.2213 C   0  0  0  0  0  0  0  0  0  0  0  0
  -24.2570   11.9522  -13.2066 N   0  0  0  0  0  0  0  0  0  0  0  0
  -24.5882   14.7065  -15.5001 H   0  0  0  0  0  0  0  0  0  0  0  0
  1  2  1  0  0  0  0
  1  6  1  0  0  0  0
  2  3  1  0  0  0  0
  3  4  1  0  0  0  0
  3  9  1  1  0  0  0
  4  5  1  0  0  0  0
  4 11  1  0  0  0  0
  5  6  1  0  0  0  0
  6  7  1  1  0  0  0
  7  8  3  0  0  0  0
  9 10  3  0  0  0  0
M  END
>  <CHROM.0>
-59.57704980,-61.55291817,-67.91905562,-43.40691380,-58.49145422,-60.84441803
-66.73411974,-59.30406216,-169.28239776

>  <CHROM.1>
-26.68079014,13.73630669,-15.48282399,2.53673708,-0.44465954,-0.06046000

>  <Name>
P150510098

>  <RI>
0

>  <Rbt.Current_Directory>
/home/fstefaniak/projects/zuza/docking/adenine/4TZX

>  <Rbt.Executable>
rbdock ($Id: //depot/dev/client3/rdock/2013.1/src/exe/rbdock.cxx#4 $)

>  <Rbt.Library>
libRbt.so (2013.1, Build901 2013/11/27)

>  <Rbt.Parameter_File>
/home/fstefaniak/progs/rDock//data/scripts/dock_solv.prm

>  <Rbt.Receptor>
4tzx.prm

>  <SCORE>
-44.1182

>  <SCORE.INTER>
-22.9424

>  <SCORE.INTER.CONST>
1

>  <SCORE.INTER.POLAR>
-2.3227

>  <SCORE.INTER.ROT>
0

>  <SCORE.INTER.SOLV>
6.9064

>  <SCORE.INTER.VDW>
-13.4547

>  <SCORE.INTER.norm>
-2.29424

>  <SCORE.INTRA>
0

>  <SCORE.INTRA.DIHEDRAL>
0

>  <SCORE.INTRA.DIHEDRAL.0>
0

>  <SCORE.INTRA.POLAR>
0

>  <SCORE.INTRA.POLAR.0>
0

>  <SCORE.INTRA.REPUL>
0

>  <SCORE.INTRA.REPUL.0>
0

>  <SCORE.INTRA.SOLV>
0

>  <SCORE.INTRA.SOLV.lig_0>
-10.9823

>  <SCORE.INTRA.VDW>
0

>  <SCORE.INTRA.VDW.0>
0

>  <SCORE.INTRA.norm>
0

>  <SCORE.RESTR>
0

>  <SCORE.RESTR.CAVITY>
0

>  <SCORE.RESTR.norm>
0

>  <SCORE.SYSTEM>
-21.1758

>  <SCORE.SYSTEM.CONST>
0

>  <SCORE.SYSTEM.DIHEDRAL>
4.38639

>  <SCORE.SYSTEM.POLAR>
-3.03723

>  <SCORE.SYSTEM.SOLV>
0.185364

>  <SCORE.SYSTEM.VDW>
-5.51702

>  <SCORE.SYSTEM.norm>
-2.11758

>  <SCORE.heavy>
10

>  <SCORE.norm>
-4.41182

$$$$
P150510098
 OpenBabel12072022113D
libRbt.so/2013.1/901 2013/11/27
 11 11  0  0  0  0  0  0  0  0999 V2000
  -27.8742   12.9101  -16.5691 C   0  0  0  0  0  0  0  0  0  0  0  0
  -27.0659   12.4099  -15.3689 C   0  0  0  0  0  0  0  0  0  0  0  0
  -25.6080   12.8851  -15.4333 C   0  0  1  0  0  0  0  0  0  0  0  0
  -25.5562   14.3547  -15.5292 N   0  0  0  0  0  0  0  0  0  0  0  0
  -26.2712   14.8588  -16.7057 C   0  0  0  0  0  0  0  0  0  0  0  0
  -27.7448   14.4259  -16.7667 C   0  0  2  0  0  0  0  0  0  0  0  0
  -28.5605   15.1671  -15.7858 C   0  0  0  0  0  0  0  0  0  0  0  0
  -29.2306   15.7482  -15.0375 N   0  0  0  0  0  0  0  0  0  0  0  0
  -24.8533   12.3793  -14.2147 C   0  0  0  0  0  0  0  0  0  0  0  0
  -24.2272   11.9597  -13.2038 N   0  0  0  0  0  0  0  0  0  0  0  0
  -24.5822   14.6630  -15.5538 H   0  0  0  0  0  0  0  0  0  0  0  0
  1  2  1  0  0  0  0
  1  6  1  0  0  0  0
  2  3  1  0  0  0  0
  3  4  1  0  0  0  0
  3  9  1  1  0  0  0
  4  5  1  0  0  0  0
  4 11  1  0  0  0  0
  5  6  1  0  0  0  0
  6  7  1  1  0  0  0
  7  8  3  0  0  0  0
  9 10  3  0  0  0  0
M  END
>  <CHROM.0>
-59.47529137,-62.90106408,-72.51811715,-43.14842904,-58.06520666,-178.33944700
-173.36648667,-174.90974663,-169.11110039

>  <CHROM.1>
-26.68366681,13.71577519,-15.46679609,2.52716361,-0.42146531,-0.08801028

>  <Name>
P150510098

>  <RI>
0

>  <Rbt.Current_Directory>
/home/fstefaniak/projects/zuza/docking/adenine/4TZX

>  <Rbt.Executable>
rbdock ($Id: //depot/dev/client3/rdock/2013.1/src/exe/rbdock.cxx#4 $)

>  <Rbt.Library>
libRbt.so (2013.1, Build901 2013/11/27)

>  <Rbt.Parameter_File>
/home/fstefaniak/progs/rDock//data/scripts/dock_solv.prm

>  <Rbt.Receptor>
4tzx.prm

>  <SCORE>
-43.317

>  <SCORE.INTER>
-22.9632

>  <SCORE.INTER.CONST>
1

>  <SCORE.INTER.POLAR>
-2.33617

>  <SCORE.INTER.ROT>
0

>  <SCORE.INTER.SOLV>
6.89862

>  <SCORE.INTER.VDW>
-13.4211

>  <SCORE.INTER.norm>
-2.29632

>  <SCORE.INTRA>
0

>  <SCORE.INTRA.DIHEDRAL>
0

>  <SCORE.INTRA.DIHEDRAL.0>
0

>  <SCORE.INTRA.POLAR>
0

>  <SCORE.INTRA.POLAR.0>
0

>  <SCORE.INTRA.REPUL>
0

>  <SCORE.INTRA.REPUL.0>
0

>  <SCORE.INTRA.SOLV>
0

>  <SCORE.INTRA.SOLV.lig_0>
-10.9823

>  <SCORE.INTRA.VDW>
0

>  <SCORE.INTRA.VDW.0>
0

>  <SCORE.INTRA.norm>
0

>  <SCORE.RESTR>
0

>  <SCORE.RESTR.CAVITY>
0

>  <SCORE.RESTR.norm>
0

>  <SCORE.SYSTEM>
-20.3539

>  <SCORE.SYSTEM.CONST>
0

>  <SCORE.SYSTEM.DIHEDRAL>
5.00078

>  <SCORE.SYSTEM.POLAR>
-3.02953

>  <SCORE.SYSTEM.SOLV>
-0.0947283

>  <SCORE.SYSTEM.VDW>
-5.10616

>  <SCORE.SYSTEM.norm>
-2.03539

>  <SCORE.heavy>
10

>  <SCORE.norm>
-4.3317

$$$$
P150510098
 OpenBabel12072022113D
libRbt.so/2013.1/901 2013/11/27
 11 11  0  0  0  0  0  0  0  0999 V2000
  -27.8303   13.0562  -16.7559 C   0  0  0  0  0  0  0  0  0  0  0  0
  -27.1237   12.4262  -15.5527 C   0  0  0  0  0  0  0  0  0  0  0  0
  -25.6637   12.8884  -15.4506 C   0  0  1  0  0  0  0  0  0  0  0  0
  -25.5993   14.3594  -15.3899 N   0  0  0  0  0  0  0  0  0  0  0  0
  -26.2149   14.9898  -16.5617 C   0  0  0  0  0  0  0  0  0  0  0  0
  -27.6802   14.5827  -16.7852 C   0  0  2  0  0  0  0  0  0  0  0  0
  -28.5702   15.2289  -15.8017 C   0  0  0  0  0  0  0  0  0  0  0  0
  -29.2968   15.7380  -15.0537 N   0  0  0  0  0  0  0  0  0  0  0  0
  -25.0120   12.2516  -14.2340 C   0  0  0  0  0  0  0  0  0  0  0  0
  -24.4713   11.7233  -13.2247 N   0  0  0  0  0  0  0  0  0  0  0  0
  -24.6256   14.6571  -15.3043 H   0  0  0  0  0  0  0  0  0  0  0  0
  1  2  1  0  0  0  0
  1  6  1  0  0  0  0
  2  3  1  0  0  0  0
  3  4  1  0  0  0  0
  3  9  1  1  0  0  0
  4  5  1  0  0  0  0
  4 11  1  0  0  0  0
  5  6  1  0  0  0  0
  6  7  1  1  0  0  0
  7  8  3  0  0  0  0
  9 10  3  0  0  0  0
M  END
>  <CHROM.0>
-60.67950996,-63.56429093,60.20063185,-42.99389202,-60.52060492,-176.01859344
55.12522241,-60.76795278,-169.15586417

>  <CHROM.1>
-26.73032385,13.73065995,-15.48442289,2.51520080,-0.50197499,0.00982147

>  <Name>
P150510098

>  <RI>
0

>  <Rbt.Current_Directory>
/home/fstefaniak/projects/zuza/docking/adenine/4TZX

>  <Rbt.Executable>
rbdock ($Id: //depot/dev/client3/rdock/2013.1/src/exe/rbdock.cxx#4 $)

>  <Rbt.Library>
libRbt.so (2013.1, Build901 2013/11/27)

>  <Rbt.Parameter_File>
/home/fstefaniak/progs/rDock//data/scripts/dock_solv.prm

>  <Rbt.Receptor>
4tzx.prm

>  <SCORE>
-41.7239

>  <SCORE.INTER>
-22.7252

>  <SCORE.INTER.CONST>
1

>  <SCORE.INTER.POLAR>
-2.35336

>  <SCORE.INTER.ROT>
0

>  <SCORE.INTER.SOLV>
6.81686

>  <SCORE.INTER.VDW>
-13.1779

>  <SCORE.INTER.norm>
-2.27252

>  <SCORE.INTRA>
0

>  <SCORE.INTRA.DIHEDRAL>
0

>  <SCORE.INTRA.DIHEDRAL.0>
0

>  <SCORE.INTRA.POLAR>
0

>  <SCORE.INTRA.POLAR.0>
0

>  <SCORE.INTRA.REPUL>
0

>  <SCORE.INTRA.REPUL.0>
0

>  <SCORE.INTRA.SOLV>
0

>  <SCORE.INTRA.SOLV.lig_0>
-10.9823

>  <SCORE.INTRA.VDW>
0

>  <SCORE.INTRA.VDW.0>
0

>  <SCORE.INTRA.norm>
0

>  <SCORE.RESTR>
0

>  <SCORE.RESTR.CAVITY>
0

>  <SCORE.RESTR.norm>
0

>  <SCORE.SYSTEM>
-18.9987

>  <SCORE.SYSTEM.CONST>
0

>  <SCORE.SYSTEM.DIHEDRAL>
4.18841

>  <SCORE.SYSTEM.POLAR>
-3.01821

>  <SCORE.SYSTEM.SOLV>
-0.0456631

>  <SCORE.SYSTEM.VDW>
-3.98601

>  <SCORE.SYSTEM.norm>
-1.89987

>  <SCORE.heavy>
10

>  <SCORE.norm>
-4.17239

$$$$
P150927401
 OpenBabel12072022113D
libRbt.so/2013.1/901 2013/11/27
  8  7  0  0  0  0  0  0  0  0999 V2000
  -31.4888   19.0213  -17.8375 C   0  0  0  0  0  0  0  0  0  0  0  0
  -30.5220   17.9652  -17.3955 C   0  0  0  0  0  0  0  0  0  0  0  0
  -29.8293   17.3007  -18.1546 O   0  0  0  0  0  0  0  0  0  0  0  0
  -30.4736   17.7088  -15.9140 C   0  0  0  0  0  0  0  0  0  0  0  0
  -31.2749   18.3681  -15.1319 N   0  0  0  0  0  0  0  0  0  0  0  0
  -31.1198   17.9943  -13.7887 O   0  0  0  0  0  0  0  0  0  0  0  0
  -29.3606   16.5048  -15.4352 Cl  0  0  0  0  0  0  0  0  0  0  0  0
  -30.5120   18.6746  -13.4413 H   0  0  0  0  0  0  0  0  0  0  0  0
  1  2  1  0  0  0  0
  2  3  2  0  0  0  0
  2  4  1  0  0  0  0
  4  5  2  0  0  0  0
  4  7  1  0  0  0  0
  5  6  1  0  0  0  0
  6  8  1  0  0  0  0
M  END
>  <CHROM.0>
-58.60164666,-176.64860503,-66.40484421,-43.76432290,-57.41289092,-61.99268099
-67.43372757,-61.12045781,-168.67624129

>  <CHROM.1>
1.95468362,96.37351003,-30.37219939,17.61311456,-16.06325341,1.68204261,0.79258638
-1.43849139

>  <Name>
P150927401

>  <RI>
0

>  <Rbt.Current_Directory>
/home/fstefaniak/projects/zuza/docking/adenine/4TZX

>  <Rbt.Executable>
rbdock ($Id: //depot/dev/client3/rdock/2013.1/src/exe/rbdock.cxx#4 $)

>  <Rbt.Library>
libRbt.so (2013.1, Build901 2013/11/27)

>  <Rbt.Parameter_File>
/home/fstefaniak/progs/rDock//data/scripts/dock_solv.prm

>  <Rbt.Receptor>
4tzx.prm

>  <SCORE>
-51.9228

>  <SCORE.INTER>
-25.7744

>  <SCORE.INTER.CONST>
1

>  <SCORE.INTER.POLAR>
-3.19228

>  <SCORE.INTER.ROT>
1

>  <SCORE.INTER.SOLV>
7.66379

>  <SCORE.INTER.VDW>
-13.3632

>  <SCORE.INTER.norm>
-3.68205

>  <SCORE.INTRA>
-5.10538

>  <SCORE.INTRA.DIHEDRAL>
-12.7416

>  <SCORE.INTRA.DIHEDRAL.0>
12.7892

>  <SCORE.INTRA.POLAR>
0

>  <SCORE.INTRA.POLAR.0>
0

>  <SCORE.INTRA.REPUL>
0

>  <SCORE.INTRA.REPUL.0>
0

>  <SCORE.INTRA.SOLV>
0.0513774

>  <SCORE.INTRA.SOLV.lig_0>
-9.36654

>  <SCORE.INTRA.VDW>
1.23975

>  <SCORE.INTRA.VDW.0>
-0.675258

>  <SCORE.INTRA.norm>
-0.72934

>  <SCORE.RESTR>
0

>  <SCORE.RESTR.CAVITY>
0

>  <SCORE.RESTR.norm>
0

>  <SCORE.SYSTEM>
-21.0431

>  <SCORE.SYSTEM.CONST>
0

>  <SCORE.SYSTEM.DIHEDRAL>
4.43022

>  <SCORE.SYSTEM.POLAR>
-3.04552

>  <SCORE.SYSTEM.SOLV>
0.154644

>  <SCORE.SYSTEM.VDW>
-5.40527

>  <SCORE.SYSTEM.norm>
-3.00616

>  <SCORE.heavy>
7

>  <SCORE.norm>
-7.41755

$$$$
P150927401
 OpenBabel12072022113D
libRbt.so/2013.1/901 2013/11/27
  8  7  0  0  0  0  0  0  0  0999 V2000
  -31.3937   19.0331  -17.8313 C   0  0  0  0  0  0  0  0  0  0  0  0
  -30.4618   17.9551  -17.3674 C   0  0  0  0  0  0  0  0  0  0  0  0
  -29.7766   17.2662  -18.1114 O   0  0  0  0  0  0  0  0  0  0  0  0
  -30.4411   17.7096  -15.8835 C   0  0  0  0  0  0  0  0  0  0  0  0
  -31.2515   18.3800  -15.1204 N   0  0  0  0  0  0  0  0  0  0  0  0
  -31.1225   18.0153  -13.7719 O   0  0  0  0  0  0  0  0  0  0  0  0
  -29.3447   16.5018  -15.3763 Cl  0  0  0  0  0  0  0  0  0  0  0  0
  -30.5363   18.7085  -13.4132 H   0  0  0  0  0  0  0  0  0  0  0  0
  1  2  1  0  0  0  0
  2  3  2  0  0  0  0
  2  4  1  0  0  0  0
  4  5  2  0  0  0  0
  4  7  1  0  0  0  0
  5  6  1  0  0  0  0
  6  8  1  0  0  0  0
M  END
>  <CHROM.0>
-60.71343862,-175.09619031,-64.73955036,-42.88491316,-175.09728666,-54.60749580
-66.28147125,-55.85837123,-168.61040378

>  <CHROM.1>
3.12305178,97.89814825,-30.33757391,17.61268562,-16.03003423,1.65517168,0.80269809
-1.42683197

>  <Name>
P150927401

>  <RI>
0

>  <Rbt.Current_Directory>
/home/fstefaniak/projects/zuza/docking/adenine/4TZX

>  <Rbt.Executable>
rbdock ($Id: //depot/dev/client3/rdock/2013.1/src/exe/rbdock.cxx#4 $)

>  <Rbt.Library>
libRbt.so (2013.1, Build901 2013/11/27)

>  <Rbt.Parameter_File>
/home/fstefaniak/progs/rDock//data/scripts/dock_solv.prm

>  <Rbt.Receptor>
4tzx.prm

>  <SCORE>
-51.867

>  <SCORE.INTER>
-25.7142

>  <SCORE.INTER.CONST>
1

>  <SCORE.INTER.POLAR>
-3.18944

>  <SCORE.INTER.ROT>
1

>  <SCORE.INTER.SOLV>
7.67139

>  <SCORE.INTER.VDW>
-13.3351

>  <SCORE.INTER.norm>
-3.67346

>  <SCORE.INTRA>
-5.09353

>  <SCORE.INTRA.DIHEDRAL>
-12.7064

>  <SCORE.INTRA.DIHEDRAL.0>
12.7892

>  <SCORE.INTRA.POLAR>
0

>  <SCORE.INTRA.POLAR.0>
0

>  <SCORE.INTRA.REPUL>
0

>  <SCORE.INTRA.REPUL.0>
0

>  <SCORE.INTRA.SOLV>
0.051582

>  <SCORE.INTRA.SOLV.lig_0>
-9.36654

>  <SCORE.INTRA.VDW>
1.23386

>  <SCORE.INTRA.VDW.0>
-0.675258

>  <SCORE.INTRA.norm>
-0.727647

>  <SCORE.RESTR>
0

>  <SCORE.RESTR.CAVITY>
0

>  <SCORE.RESTR.norm>
0

>  <SCORE.SYSTEM>
-21.0593

>  <SCORE.SYSTEM.CONST>
0

>  <SCORE.SYSTEM.DIHEDRAL>
4.72457

>  <SCORE.SYSTEM.POLAR>
-3.07892

>  <SCORE.SYSTEM.SOLV>
-0.0113351

>  <SCORE.SYSTEM.VDW>
-5.34751

>  <SCORE.SYSTEM.norm>
-3.00847

>  <SCORE.heavy>
7

>  <SCORE.norm>
-7.40957

$$$$
P150927401
 OpenBabel12072022113D
libRbt.so/2013.1/901 2013/11/27
  8  7  0  0  0  0  0  0  0  0999 V2000
  -28.9536   16.2720  -15.9460 C   0  0  0  0  0  0  0  0  0  0  0  0
  -30.2042   17.0087  -15.5734 C   0  0  0  0  0  0  0  0  0  0  0  0
  -30.7069   16.9974  -14.4576 O   0  0  0  0  0  0  0  0  0  0  0  0
  -30.8750   17.7563  -16.6932 C   0  0  0  0  0  0  0  0  0  0  0  0
  -31.9925   18.3765  -16.4589 N   0  0  0  0  0  0  0  0  0  0  0  0
  -32.4708   19.0411  -17.5979 O   0  0  0  0  0  0  0  0  0  0  0  0
  -30.0263   17.7314  -18.1754 Cl  0  0  0  0  0  0  0  0  0  0  0  0
  -32.2667   19.9765  -17.4070 H   0  0  0  0  0  0  0  0  0  0  0  0
  1  2  1  0  0  0  0
  2  3  2  0  0  0  0
  2  4  1  0  0  0  0
  4  5  2  0  0  0  0
  4  7  1  0  0  0  0
  5  6  1  0  0  0  0
  6  8  1  0  0  0  0
M  END
>  <CHROM.0>
-61.05312135,-61.79762894,-66.33845817,-41.58820765,-57.00402308,-175.71275165
-66.17951320,-59.50076877,-168.91047648

>  <CHROM.1>
177.36055247,-104.68930170,-30.65169446,17.65063893,-16.72619651,-0.94850628
0.54949212,-1.25985809

>  <Name>
P150927401

>  <RI>
0

>  <Rbt.Current_Directory>
/home/fstefaniak/projects/zuza/docking/adenine/4TZX

>  <Rbt.Executable>
rbdock ($Id: //depot/dev/client3/rdock/2013.1/src/exe/rbdock.cxx#4 $)

>  <Rbt.Library>
libRbt.so (2013.1, Build901 2013/11/27)

>  <Rbt.Parameter_File>
/home/fstefaniak/progs/rDock//data/scripts/dock_solv.prm

>  <Rbt.Receptor>
4tzx.prm

>  <SCORE>
-51.44

>  <SCORE.INTER>
-27.0521

>  <SCORE.INTER.CONST>
1

>  <SCORE.INTER.POLAR>
-3.59443

>  <SCORE.INTER.ROT>
1

>  <SCORE.INTER.SOLV>
7.50252

>  <SCORE.INTER.VDW>
-12.8208

>  <SCORE.INTER.norm>
-3.86459

>  <SCORE.INTRA>
-3.42998

>  <SCORE.INTRA.DIHEDRAL>
-12.6333

>  <SCORE.INTRA.DIHEDRAL.0>
12.7892

>  <SCORE.INTRA.POLAR>
0

>  <SCORE.INTRA.POLAR.0>
0

>  <SCORE.INTRA.REPUL>
0

>  <SCORE.INTRA.REPUL.0>
0

>  <SCORE.INTRA.SOLV>
-0.0340665

>  <SCORE.INTRA.SOLV.lig_0>
-9.36654

>  <SCORE.INTRA.VDW>
2.90369

>  <SCORE.INTRA.VDW.0>
-0.675258

>  <SCORE.INTRA.norm>
-0.489997

>  <SCORE.RESTR>
0

>  <SCORE.RESTR.CAVITY>
0

>  <SCORE.RESTR.norm>
0

>  <SCORE.SYSTEM>
-20.9579

>  <SCORE.SYSTEM.CONST>
0

>  <SCORE.SYSTEM.DIHEDRAL>
4.67101

>  <SCORE.SYSTEM.POLAR>
-3.06899

>  <SCORE.SYSTEM.SOLV>
0.0726582

>  <SCORE.SYSTEM.VDW>
-5.32318

>  <SCORE.SYSTEM.norm>
-2.99398

>  <SCORE.heavy>
7

>  <SCORE.norm>
-7.34857

$$$$
P151016908
 OpenBabel12072022113D
libRbt.so/2013.1/901 2013/11/27
 14 14  0  0  0  0  0  0  0  0999 V2000
  -31.9222   17.7746  -13.5598 C   0  0  0  0  0  0  0  0  0  0  0  0
  -30.9155   18.5068  -14.4476 C   0  0  1  0  0  0  0  0  0  0  0  0
  -29.6118   17.7385  -14.7428 C   0  0  2  0  0  0  0  0  0  0  0  0
  -29.8007   16.6387  -15.7959 C   0  0  2  0  0  0  0  0  0  0  0  0
  -30.5470   17.1679  -17.0092 C   0  0  1  0  0  0  0  0  0  0  0  0
  -31.8039   17.9448  -16.6015 C   0  0  1  0  0  0  0  0  0  0  0  0
  -31.5254   18.9731  -15.6537 O   0  0  0  0  0  0  0  0  0  0  0  0
  -32.3855   18.5610  -17.7454 O   0  0  0  0  0  0  0  0  0  0  0  0
  -29.7152   18.0212  -17.6871 F   0  0  0  0  0  0  0  0  0  0  0  0
  -30.4830   15.5161  -15.2248 O   0  0  0  0  0  0  0  0  0  0  0  0
  -29.0601   17.1467  -13.5611 O   0  0  0  0  0  0  0  0  0  0  0  0
  -32.4248   17.8549  -18.4151 H   0  0  0  0  0  0  0  0  0  0  0  0
  -30.7501   14.9679  -15.9924 H   0  0  0  0  0  0  0  0  0  0  0  0
  -28.9101   17.8658  -12.9204 H   0  0  0  0  0  0  0  0  0  0  0  0
  2  1  1  6  0  0  0
  2  3  1  0  0  0  0
  2  7  1  0  0  0  0
  3 11  1  1  0  0  0
  3  4  1  0  0  0  0
  4 10  1  1  0  0  0
  4  5  1  0  0  0  0
  5  9  1  1  0  0  0
  5  6  1  0  0  0  0
  6  7  1  0  0  0  0
  6  8  1  6  0  0  0
  8 12  1  0  0  0  0
 10 13  1  0  0  0  0
 11 14  1  0  0  0  0
M  END
>  <CHROM.0>
-56.61147915,-172.70811284,-66.67888066,-42.73996551,-174.63028494,-59.56296806
-65.19822489,-57.29218700,-168.83493035

>  <CHROM.1>
-57.62625493,166.87485342,48.34644635,-30.69652884,17.63133284,-15.68329782
1.09240920,-0.67637397,1.56445640

>  <Name>
P151016908

>  <RI>
0

>  <Rbt.Current_Directory>
/home/fstefaniak/projects/zuza/docking/adenine/4TZX

>  <Rbt.Executable>
rbdock ($Id: //depot/dev/client3/rdock/2013.1/src/exe/rbdock.cxx#4 $)

>  <Rbt.Library>
libRbt.so (2013.1, Build901 2013/11/27)

>  <Rbt.Parameter_File>
/home/fstefaniak/progs/rDock//data/scripts/dock_solv.prm

>  <Rbt.Receptor>
4tzx.prm

>  <SCORE>
-47.6807

>  <SCORE.INTER>
-27.264

>  <SCORE.INTER.CONST>
1

>  <SCORE.INTER.POLAR>
-5.25355

>  <SCORE.INTER.ROT>
0

>  <SCORE.INTER.SOLV>
14.5723

>  <SCORE.INTER.VDW>
-9.12158

>  <SCORE.INTER.norm>
-2.47854

>  <SCORE.INTRA>
0.642361

>  <SCORE.INTRA.DIHEDRAL>
0.0238412

>  <SCORE.INTRA.DIHEDRAL.0>
1.59894

>  <SCORE.INTRA.POLAR>
0.229841

>  <SCORE.INTRA.POLAR.0>
-0.229841

>  <SCORE.INTRA.REPUL>
0

>  <SCORE.INTRA.REPUL.0>
0

>  <SCORE.INTRA.SOLV>
-0.152135

>  <SCORE.INTRA.SOLV.lig_0>
-15.5471

>  <SCORE.INTRA.VDW>
-0.0749515

>  <SCORE.INTRA.VDW.0>
0.383992

>  <SCORE.INTRA.norm>
0.0583965

>  <SCORE.RESTR>
0

>  <SCORE.RESTR.CAVITY>
0

>  <SCORE.RESTR.norm>
0

>  <SCORE.SYSTEM>
-21.0591

>  <SCORE.SYSTEM.CONST>
0

>  <SCORE.SYSTEM.DIHEDRAL>
4.80219

>  <SCORE.SYSTEM.POLAR>
-3.08075

>  <SCORE.SYSTEM.SOLV>
-0.0149034

>  <SCORE.SYSTEM.VDW>
-5.36596

>  <SCORE.SYSTEM.norm>
-1.91446

>  <SCORE.heavy>
11

>  <SCORE.norm>
-4.33461

$$$$
P151016908
 OpenBabel12072022113D
libRbt.so/2013.1/901 2013/11/27
 14 14  0  0  0  0  0  0  0  0999 V2000
  -31.8957   17.7895  -13.5647 C   0  0  0  0  0  0  0  0  0  0  0  0
  -30.8751   18.4962  -14.4573 C   0  0  1  0  0  0  0  0  0  0  0  0
  -29.5870   17.7006  -14.7483 C   0  0  2  0  0  0  0  0  0  0  0  0
  -29.7981   16.5985  -15.7946 C   0  0  2  0  0  0  0  0  0  0  0  0
  -30.5343   17.1350  -17.0109 C   0  0  1  0  0  0  0  0  0  0  0  0
  -31.7755   17.9389  -16.6074 C   0  0  1  0  0  0  0  0  0  0  0  0
  -31.4763   18.9672  -15.6660 O   0  0  0  0  0  0  0  0  0  0  0  0
  -32.3453   18.5596  -17.7548 O   0  0  0  0  0  0  0  0  0  0  0  0
  -29.6861   17.9676  -17.6941 F   0  0  0  0  0  0  0  0  0  0  0  0
  -30.5021   15.4930  -15.2165 O   0  0  0  0  0  0  0  0  0  0  0  0
  -29.0465   17.1053  -13.5632 O   0  0  0  0  0  0  0  0  0  0  0  0
  -32.4251   17.8439  -18.4106 H   0  0  0  0  0  0  0  0  0  0  0  0
  -30.7686   14.9385  -15.9799 H   0  0  0  0  0  0  0  0  0  0  0  0
  -28.8200   17.8303  -12.9525 H   0  0  0  0  0  0  0  0  0  0  0  0
  2  1  1  6  0  0  0
  2  3  1  0  0  0  0
  2  7  1  0  0  0  0
  3 11  1  1  0  0  0
  3  4  1  0  0  0  0
  4 10  1  1  0  0  0
  4  5  1  0  0  0  0
  5  9  1  1  0  0  0
  5  6  1  0  0  0  0
  6  7  1  0  0  0  0
  6  8  1  6  0  0  0
  8 12  1  0  0  0  0
 10 13  1  0  0  0  0
 11 14  1  0  0  0  0
M  END
>  <CHROM.0>
-59.63859665,-61.00639872,-68.20418357,-42.87102456,-59.48010099,-61.20359095
-67.90586324,-59.98363403,-168.76981460

>  <CHROM.1>
-61.77283619,167.70511682,50.09217461,-30.67379440,17.60918077,-15.68781965
1.09026245,-0.69536512,1.55757109

>  <Name>
P151016908

>  <RI>
0

>  <Rbt.Current_Directory>
/home/fstefaniak/projects/zuza/docking/adenine/4TZX

>  <Rbt.Executable>
rbdock ($Id: //depot/dev/client3/rdock/2013.1/src/exe/rbdock.cxx#4 $)

>  <Rbt.Library>
libRbt.so (2013.1, Build901 2013/11/27)

>  <Rbt.Parameter_File>
/home/fstefaniak/progs/rDock//data/scripts/dock_solv.prm

>  <Rbt.Receptor>
4tzx.prm

>  <SCORE>
-47.6555

>  <SCORE.INTER>
-26.9113

>  <SCORE.INTER.CONST>
1

>  <SCORE.INTER.POLAR>
-5.17447

>  <SCORE.INTER.ROT>
0

>  <SCORE.INTER.SOLV>
14.6665

>  <SCORE.INTER.VDW>
-9.18145

>  <SCORE.INTER.norm>
-2.44648

>  <SCORE.INTRA>
0.425016

>  <SCORE.INTRA.DIHEDRAL>
-0.258503

>  <SCORE.INTRA.DIHEDRAL.0>
1.59894

>  <SCORE.INTRA.POLAR>
0.229841

>  <SCORE.INTRA.POLAR.0>
-0.229841

>  <SCORE.INTRA.REPUL>
0

>  <SCORE.INTRA.REPUL.0>
0

>  <SCORE.INTRA.SOLV>
-0.148411

>  <SCORE.INTRA.SOLV.lig_0>
-15.5471

>  <SCORE.INTRA.VDW>
-0.152987

>  <SCORE.INTRA.VDW.0>
0.383992

>  <SCORE.INTRA.norm>
0.0386378

>  <SCORE.RESTR>
0

>  <SCORE.RESTR.CAVITY>
0

>  <SCORE.RESTR.norm>
0

>  <SCORE.SYSTEM>
-21.1693

>  <SCORE.SYSTEM.CONST>
0

>  <SCORE.SYSTEM.DIHEDRAL>
4.59231

>  <SCORE.SYSTEM.POLAR>
-3.04887

>  <SCORE.SYSTEM.SOLV>
0.179615

>  <SCORE.SYSTEM.VDW>
-5.5406

>  <SCORE.SYSTEM.norm>
-1.92448

>  <SCORE.heavy>
11

>  <SCORE.norm>
-4.33232

$$$$
P151016908
 OpenBabel12072022113D
libRbt.so/2013.1/901 2013/11/27
 14 14  0  0  0  0  0  0  0  0999 V2000
  -31.9221   17.7525  -13.5535 C   0  0  0  0  0  0  0  0  0  0  0  0
  -30.9164   18.4954  -14.4334 C   0  0  1  0  0  0  0  0  0  0  0  0
  -29.6078   17.7357  -14.7293 C   0  0  2  0  0  0  0  0  0  0  0  0
  -29.7878   16.6417  -15.7899 C   0  0  2  0  0  0  0  0  0  0  0  0
  -30.5330   17.1749  -17.0023 C   0  0  1  0  0  0  0  0  0  0  0  0
  -31.7951   17.9427  -16.5936 C   0  0  1  0  0  0  0  0  0  0  0  0
  -31.5249   18.9663  -15.6384 O   0  0  0  0  0  0  0  0  0  0  0  0
  -32.3763   18.5632  -17.7353 O   0  0  0  0  0  0  0  0  0  0  0  0
  -29.7034   18.0367  -17.6720 F   0  0  0  0  0  0  0  0  0  0  0  0
  -30.4662   15.5120  -15.2282 O   0  0  0  0  0  0  0  0  0  0  0  0
  -29.0568   17.1392  -13.5497 O   0  0  0  0  0  0  0  0  0  0  0  0
  -32.4325   17.8549  -18.4016 H   0  0  0  0  0  0  0  0  0  0  0  0
  -30.7369   14.9724  -16.0007 H   0  0  0  0  0  0  0  0  0  0  0  0
  -28.8379   17.8630  -12.9346 H   0  0  0  0  0  0  0  0  0  0  0  0
  2  1  1  6  0  0  0
  2  3  1  0  0  0  0
  2  7  1  0  0  0  0
  3 11  1  1  0  0  0
  3  4  1  0  0  0  0
  4 10  1  1  0  0  0
  4  5  1  0  0  0  0
  5  9  1  1  0  0  0
  5  6  1  0  0  0  0
  6  7  1  0  0  0  0
  6  8  1  6  0  0  0
  8 12  1  0  0  0  0
 10 13  1  0  0  0  0
 11 14  1  0  0  0  0
M  END
>  <CHROM.0>
-57.44677742,-176.91389114,-64.21962099,-43.78449562,-57.28792268,-58.18736047
-66.14396450,-58.40078262,-169.05884038

>  <CHROM.1>
-62.62100829,166.25899143,49.86169064,-30.68880176,17.62907139,-15.67403054
1.09518426,-0.67009927,1.57311561

>  <Name>
P151016908

>  <RI>
0

>  <Rbt.Current_Directory>
/home/fstefaniak/projects/zuza/docking/adenine/4TZX

>  <Rbt.Executable>
rbdock ($Id: //depot/dev/client3/rdock/2013.1/src/exe/rbdock.cxx#4 $)

>  <Rbt.Library>
libRbt.so (2013.1, Build901 2013/11/27)

>  <Rbt.Parameter_File>
/home/fstefaniak/progs/rDock//data/scripts/dock_solv.prm

>  <Rbt.Receptor>
4tzx.prm

>  <SCORE>
-47.6507

>  <SCORE.INTER>
-27.2317

>  <SCORE.INTER.CONST>
1

>  <SCORE.INTER.POLAR>
-5.18918

>  <SCORE.INTER.ROT>
0

>  <SCORE.INTER.SOLV>
14.5738

>  <SCORE.INTER.VDW>
-9.31517

>  <SCORE.INTER.norm>
-2.47561

>  <SCORE.INTRA>
0.553041

>  <SCORE.INTRA.DIHEDRAL>
-0.0490898

>  <SCORE.INTRA.DIHEDRAL.0>
1.59894

>  <SCORE.INTRA.POLAR>
0.229841

>  <SCORE.INTRA.POLAR.0>
-0.229841

>  <SCORE.INTRA.REPUL>
0

>  <SCORE.INTRA.REPUL.0>
0

>  <SCORE.INTRA.SOLV>
-0.150379

>  <SCORE.INTRA.SOLV.lig_0>
-15.5471

>  <SCORE.INTRA.VDW>
-0.128684

>  <SCORE.INTRA.VDW.0>
0.383992

>  <SCORE.INTRA.norm>
0.0502765

>  <SCORE.RESTR>
0

>  <SCORE.RESTR.CAVITY>
0

>  <SCORE.RESTR.norm>
0

>  <SCORE.SYSTEM>
-20.972

>  <SCORE.SYSTEM.CONST>
0

>  <SCORE.SYSTEM.DIHEDRAL>
4.22662

>  <SCORE.SYSTEM.POLAR>
-3.06258

>  <SCORE.SYSTEM.SOLV>
0.175508

>  <SCORE.SYSTEM.VDW>
-5.2401

>  <SCORE.SYSTEM.norm>
-1.90655

>  <SCORE.heavy>
11

>  <SCORE.norm>
-4.33188

$$$$
P151020785
 OpenBabel12072022113D
libRbt.so/2013.1/901 2013/11/27
 16 16  0  0  0  0  0  0  0  0999 V2000
  -30.1490   16.8723  -17.4754 C   0  0  0  0  0  0  0  0  0  0  0  0
  -29.1136   16.1581  -17.0035 C   0  0  0  0  0  0  0  0  0  0  0  0
  -28.5279   16.3433  -15.6374 C   0  0  1  0  0  0  0  0  0  0  0  0
  -28.9733   17.6639  -14.9769 C   0  0  1  0  0  0  0  0  0  0  0  0
  -30.4661   17.9830  -15.1860 C   0  0  1  0  0  0  0  0  0  0  0  0
  -30.8876   17.9105  -16.6782 C   0  0  1  0  0  0  0  0  0  0  0  0
  -30.7246   19.2445  -17.3193 N   0  3  0  0  0  0  0  0  0  0  0  0
  -29.9494   19.7819  -16.9138 H   0  0  0  0  0  0  0  0  0  0  0  0
  -30.5383   19.1393  -18.3242 H   0  0  0  0  0  0  0  0  0  0  0  0
  -31.5859   19.8004  -17.2319 H   0  0  0  0  0  0  0  0  0  0  0  0
  -31.3096   17.1132  -14.4249 O   0  0  0  0  0  0  0  0  0  0  0  0
  -28.7144   17.6323  -13.5687 O   0  0  0  0  0  0  0  0  0  0  0  0
  -28.9508   15.2668  -14.8081 O   0  0  0  0  0  0  0  0  0  0  0  0
  -32.2201   17.4668  -14.4961 H   0  0  0  0  0  0  0  0  0  0  0  0
  -28.9671   18.5168  -13.2233 H   0  0  0  0  0  0  0  0  0  0  0  0
  -28.5565   14.4438  -15.1509 H   0  0  0  0  0  0  0  0  0  0  0  0
  1  2  2  0  0  0  0
  1  6  1  0  0  0  0
  2  3  1  0  0  0  0
  3  4  1  0  0  0  0
  3 13  1  1  0  0  0
  4  5  1  0  0  0  0
  4 12  1  1  0  0  0
  5 11  1  1  0  0  0
  5  6  1  0  0  0  0
  6  7  1  6  0  0  0
  7  8  1  0  0  0  0
  7  9  1  0  0  0  0
  7 10  1  0  0  0  0
 11 14  1  0  0  0  0
 12 15  1  0  0  0  0
 13 16  1  0  0  0  0
M  CHG  1   7   1
M  END
>  <CHROM.0>
-62.48921514,-64.68224199,-65.29105923,-43.01931902,-57.73649125,-66.20274363
-63.75501890,-58.67561379,-168.99300531

>  <CHROM.1>
65.85097766,176.54748006,171.09551326,-94.71540876,-29.80207864,17.23921326
-15.63812292,-2.53373694,-0.93991494,1.36816968

>  <Name>
P151020785

>  <RI>
0

>  <Rbt.Current_Directory>
/home/fstefaniak/projects/zuza/docking/adenine/4TZX

>  <Rbt.Executable>
rbdock ($Id: //depot/dev/client3/rdock/2013.1/src/exe/rbdock.cxx#4 $)

>  <Rbt.Library>
libRbt.so (2013.1, Build901 2013/11/27)

>  <Rbt.Parameter_File>
/home/fstefaniak/progs/rDock//data/scripts/dock_solv.prm

>  <Rbt.Receptor>
4tzx.prm

>  <SCORE>
-50.8202

>  <SCORE.INTER>
-28.028

>  <SCORE.INTER.CONST>
1

>  <SCORE.INTER.POLAR>
-5.16727

>  <SCORE.INTER.ROT>
0

>  <SCORE.INTER.SOLV>
21.5689

>  <SCORE.INTER.VDW>
-12.2508

>  <SCORE.INTER.norm>
-2.8028

>  <SCORE.INTRA>
-1.63271

>  <SCORE.INTRA.DIHEDRAL>
-4.15793

>  <SCORE.INTRA.DIHEDRAL.0>
7.20105

>  <SCORE.INTRA.POLAR>
0.321805

>  <SCORE.INTRA.POLAR.0>
-0.321805

>  <SCORE.INTRA.REPUL>
0

>  <SCORE.INTRA.REPUL.0>
0

>  <SCORE.INTRA.SOLV>
-0.448161

>  <SCORE.INTRA.SOLV.lig_0>
-36.0555

>  <SCORE.INTRA.VDW>
-0.423803

>  <SCORE.INTRA.VDW.0>
0.304019

>  <SCORE.INTRA.norm>
-0.163271

>  <SCORE.RESTR>
0

>  <SCORE.RESTR.CAVITY>
0

>  <SCORE.RESTR.norm>
0

>  <SCORE.SYSTEM>
-21.1594

>  <SCORE.SYSTEM.CONST>
0

>  <SCORE.SYSTEM.DIHEDRAL>
4.48291

>  <SCORE.SYSTEM.POLAR>
-3.04417

>  <SCORE.SYSTEM.SOLV>
0.179994

>  <SCORE.SYSTEM.VDW>
-5.51335

>  <SCORE.SYSTEM.norm>
-2.11594

>  <SCORE.heavy>
10

>  <SCORE.norm>
-5.08202

$$$$
P151020785
 OpenBabel12072022113D
libRbt.so/2013.1/901 2013/11/27
 16 16  0  0  0  0  0  0  0  0999 V2000
  -26.6751   11.8481  -16.9487 C   0  0  0  0  0  0  0  0  0  0  0  0
  -25.4747   12.0034  -16.3658 C   0  0  0  0  0  0  0  0  0  0  0  0
  -24.8830   13.3353  -16.0201 C   0  0  1  0  0  0  0  0  0  0  0  0
  -25.6016   14.5031  -16.7260 C   0  0  1  0  0  0  0  0  0  0  0  0
  -27.1357   14.3621  -16.7408 C   0  0  1  0  0  0  0  0  0  0  0  0
  -27.6022   12.9835  -17.2808 C   0  0  1  0  0  0  0  0  0  0  0  0
  -27.8007   13.0540  -18.7548 N   0  3  0  0  0  0  0  0  0  0  0  0
  -27.0843   12.5310  -19.2719 H   0  0  0  0  0  0  0  0  0  0  0  0
  -28.7164   12.6657  -19.0126 H   0  0  0  0  0  0  0  0  0  0  0  0
  -27.7882   14.0301  -19.0796 H   0  0  0  0  0  0  0  0  0  0  0  0
  -27.7032   14.5661  -15.4433 O   0  0  0  0  0  0  0  0  0  0  0  0
  -25.2716   15.7475  -16.0986 O   0  0  0  0  0  0  0  0  0  0  0  0
  -24.9893   13.5326  -14.6146 O   0  0  0  0  0  0  0  0  0  0  0  0
  -28.5808   14.1315  -15.4456 H   0  0  0  0  0  0  0  0  0  0  0  0
  -24.2903   15.7943  -16.0812 H   0  0  0  0  0  0  0  0  0  0  0  0
  -24.4617   14.3167  -14.3754 H   0  0  0  0  0  0  0  0  0  0  0  0
  1  2  2  0  0  0  0
  1  6  1  0  0  0  0
  2  3  1  0  0  0  0
  3  4  1  0  0  0  0
  3 13  1  1  0  0  0
  4  5  1  0  0  0  0
  4 12  1  1  0  0  0
  5 11  1  1  0  0  0
  5  6  1  0  0  0  0
  6  7  1  6  0  0  0
  7  8  1  0  0  0  0
  7  9  1  0  0  0  0
  7 10  1  0  0  0  0
 11 14  1  0  0  0  0
 12 15  1  0  0  0  0
 13 16  1  0  0  0  0
M  CHG  1   7   1
M  END
>  <CHROM.0>
-56.37099071,-176.80352550,-69.69989043,-43.34618644,60.83408017,-63.29885597
-168.01590247,60.84653382,-168.84214695

>  <CHROM.1>
169.75228603,53.49253852,-158.25611837,-17.00033709,-26.32480321,13.66559823
-16.47589366,-2.51637365,-0.67024470,0.29980526

>  <Name>
P151020785

>  <RI>
0

>  <Rbt.Current_Directory>
/home/fstefaniak/projects/zuza/docking/adenine/4TZX

>  <Rbt.Executable>
rbdock ($Id: //depot/dev/client3/rdock/2013.1/src/exe/rbdock.cxx#4 $)

>  <Rbt.Library>
libRbt.so (2013.1, Build901 2013/11/27)

>  <Rbt.Parameter_File>
/home/fstefaniak/progs/rDock//data/scripts/dock_solv.prm

>  <Rbt.Receptor>
4tzx.prm

>  <SCORE>
-50.4456

>  <SCORE.INTER>
-32.2744

>  <SCORE.INTER.CONST>
1

>  <SCORE.INTER.POLAR>
-5.10041

>  <SCORE.INTER.ROT>
0

>  <SCORE.INTER.SOLV>
18.5445

>  <SCORE.INTER.VDW>
-14.2964

>  <SCORE.INTER.norm>
-3.22744

>  <SCORE.INTRA>
0.384121

>  <SCORE.INTRA.DIHEDRAL>
-1.409

>  <SCORE.INTRA.DIHEDRAL.0>
7.20105

>  <SCORE.INTRA.POLAR>
0.321805

>  <SCORE.INTRA.POLAR.0>
-0.321805

>  <SCORE.INTRA.REPUL>
0

>  <SCORE.INTRA.REPUL.0>
0

>  <SCORE.INTRA.SOLV>
-0.281766

>  <SCORE.INTRA.SOLV.lig_0>
-36.0555

>  <SCORE.INTRA.VDW>
0.135369

>  <SCORE.INTRA.VDW.0>
0.304019

>  <SCORE.INTRA.norm>
0.0384121

>  <SCORE.RESTR>
0.0519346

>  <SCORE.RESTR.CAVITY>
0.0519346

>  <SCORE.RESTR.norm>
0.00519346

>  <SCORE.SYSTEM>
-18.6073

>  <SCORE.SYSTEM.CONST>
0

>  <SCORE.SYSTEM.DIHEDRAL>
5.1407

>  <SCORE.SYSTEM.POLAR>
-3.06227

>  <SCORE.SYSTEM.SOLV>
-0.251696

>  <SCORE.SYSTEM.VDW>
-3.82698

>  <SCORE.SYSTEM.norm>
-1.86073

>  <SCORE.heavy>
10

>  <SCORE.norm>
-5.04456

$$$$
P151020785
 OpenBabel12072022113D
libRbt.so/2013.1/901 2013/11/27
 16 16  0  0  0  0  0  0  0  0999 V2000
  -27.1682   11.7876  -16.1076 C   0  0  0  0  0  0  0  0  0  0  0  0
  -26.0094   12.0310  -15.4728 C   0  0  0  0  0  0  0  0  0  0  0  0
  -25.1346   13.2124  -15.7601 C   0  0  1  0  0  0  0  0  0  0  0  0
  -25.4947   13.9056  -17.0899 C   0  0  1  0  0  0  0  0  0  0  0  0
  -27.0119   14.0410  -17.3215 C   0  0  1  0  0  0  0  0  0  0  0  0
  -27.7636   12.6940  -17.1483 C   0  0  1  0  0  0  0  0  0  0  0  0
  -27.8367   11.9795  -18.4527 N   0  3  0  0  0  0  0  0  0  0  0  0
  -28.4089   12.4808  -19.1423 H   0  0  0  0  0  0  0  0  0  0  0  0
  -26.8970   11.8649  -18.8522 H   0  0  0  0  0  0  0  0  0  0  0  0
  -28.2268   11.0353  -18.3316 H   0  0  0  0  0  0  0  0  0  0  0  0
  -27.6001   15.0134  -16.4522 O   0  0  0  0  0  0  0  0  0  0  0  0
  -24.9139   15.2135  -17.1467 O   0  0  0  0  0  0  0  0  0  0  0  0
  -25.2859   14.1605  -14.7095 O   0  0  0  0  0  0  0  0  0  0  0  0
  -27.3383   14.7737  -15.5395 H   0  0  0  0  0  0  0  0  0  0  0  0
  -25.0700   15.5437  -18.0589 H   0  0  0  0  0  0  0  0  0  0  0  0
  -24.5731   14.8207  -14.7887 H   0  0  0  0  0  0  0  0  0  0  0  0
  1  2  2  0  0  0  0
  1  6  1  0  0  0  0
  2  3  1  0  0  0  0
  3  4  1  0  0  0  0
  3 13  1  1  0  0  0
  4  5  1  0  0  0  0
  4 12  1  1  0  0  0
  5 11  1  1  0  0  0
  5  6  1  0  0  0  0
  6  7  1  6  0  0  0
  7  8  1  0  0  0  0
  7  9  1  0  0  0  0
  7 10  1  0  0  0  0
 11 14  1  0  0  0  0
 12 15  1  0  0  0  0
 13 16  1  0  0  0  0
M  CHG  1   7   1
M  END
>  <CHROM.0>
-60.23793728,-178.40613807,-67.67590280,-42.99840134,-56.58577628,-59.28917597
-66.94355579,-58.95608870,-169.08661850

>  <CHROM.1>
166.98032938,172.05650362,-53.10514730,168.12087466,-26.41523968,13.48004737
-16.58720596,-2.83835135,-0.81372659,-0.51526212

>  <Name>
P151020785

>  <RI>
0

>  <Rbt.Current_Directory>
/home/fstefaniak/projects/zuza/docking/adenine/4TZX

>  <Rbt.Executable>
rbdock ($Id: //depot/dev/client3/rdock/2013.1/src/exe/rbdock.cxx#4 $)

>  <Rbt.Library>
libRbt.so (2013.1, Build901 2013/11/27)

>  <Rbt.Parameter_File>
/home/fstefaniak/progs/rDock//data/scripts/dock_solv.prm

>  <Rbt.Receptor>
4tzx.prm

>  <SCORE>
-49.7502

>  <SCORE.INTER>
-25.5696

>  <SCORE.INTER.CONST>
1

>  <SCORE.INTER.POLAR>
-4.01349

>  <SCORE.INTER.ROT>
0

>  <SCORE.INTER.SOLV>
14.335

>  <SCORE.INTER.VDW>
-12.0465

>  <SCORE.INTER.norm>
-2.55696

>  <SCORE.INTRA>
-3.15328

>  <SCORE.INTRA.DIHEDRAL>
-5.27754

>  <SCORE.INTRA.DIHEDRAL.0>
7.20105

>  <SCORE.INTRA.POLAR>
0.082431

>  <SCORE.INTRA.POLAR.0>
-0.321805

>  <SCORE.INTRA.REPUL>
0

>  <SCORE.INTRA.REPUL.0>
0

>  <SCORE.INTRA.SOLV>
0.0199431

>  <SCORE.INTRA.SOLV.lig_0>
-36.0555

>  <SCORE.INTRA.VDW>
-0.804746

>  <SCORE.INTRA.VDW.0>
0.304019

>  <SCORE.INTRA.norm>
-0.315328

>  <SCORE.RESTR>
0.00173766

>  <SCORE.RESTR.CAVITY>
0.00173766

>  <SCORE.RESTR.norm>
0.000173766

>  <SCORE.SYSTEM>
-21.029

>  <SCORE.SYSTEM.CONST>
0

>  <SCORE.SYSTEM.DIHEDRAL>
4.50252

>  <SCORE.SYSTEM.POLAR>
-3.05098

>  <SCORE.SYSTEM.SOLV>
0.163978

>  <SCORE.SYSTEM.VDW>
-5.40489

>  <SCORE.SYSTEM.norm>
-2.1029

>  <SCORE.heavy>
10

>  <SCORE.norm>
-4.97502

$$$$
P151024286
 OpenBabel12072022113D
libRbt.so/2013.1/901 2013/11/27
 13 13  0  0  0  0  0  0  0  0999 V2000
  -25.8986   15.7552  -16.8588 H   0  0  0  0  0  0  0  0  0  0  0  0
  -26.8686   16.1111  -16.8109 N   0  0  0  0  0  0  0  0  0  0  0  0
  -27.5592   15.2606  -16.1128 C   0  0  0  0  0  0  0  0  0  0  0  0
  -28.8725   15.4011  -15.8426 N   0  0  0  0  0  0  0  0  0  0  0  0
  -29.6586   16.4723  -16.2737 C   0  0  0  0  0  0  0  0  0  0  0  0
  -30.7629   16.8838  -15.5098 C   0  0  0  0  0  0  0  0  0  0  0  0
  -31.4773   17.9710  -16.0441 C   0  0  0  0  0  0  0  0  0  0  0  0
  -31.1155   18.5910  -17.2400 C   0  0  0  0  0  0  0  0  0  0  0  0
  -30.0118   18.1110  -17.9172 C   0  0  0  0  0  0  0  0  0  0  0  0
  -29.3334   17.0831  -17.4155 N   0  3  0  0  0  0  0  0  0  0  0  0
  -28.5049   16.6818  -17.8726 H   0  0  0  0  0  0  0  0  0  0  0  0
  -31.0898   16.3132  -14.4162 O   0  5  0  0  0  0  0  0  0  0  0  0
  -29.4436   14.7517  -15.2971 H   0  0  0  0  0  0  0  0  0  0  0  0
  1  2  1  0  0  0  0
  2  3  2  0  0  0  0
  3  4  1  0  0  0  0
  4  5  1  0  0  0  0
  4 13  1  0  0  0  0
  5  6  2  0  0  0  0
  5 10  1  0  0  0  0
  6  7  1  0  0  0  0
  6 12  1  0  0  0  0
  7  8  2  0  0  0  0
  8  9  1  0  0  0  0
  9 10  2  0  0  0  0
 10 11  1  0  0  0  0
M  CHG  2  10   1  12  -1
M  END
>  <CHROM.0>
-56.33912557,-61.32088450,-65.50391611,-43.06225660,-54.94760668,-67.43533689
-62.12510931,-62.40757564,-169.10894242

>  <CHROM.1>
-150.70517601,-29.63132036,16.77341815,-16.33708365,-0.30113373,0.44872761
-0.88720690

>  <Name>
P151024286

>  <RI>
0

>  <Rbt.Current_Directory>
/home/fstefaniak/projects/zuza/docking/adenine/4TZX

>  <Rbt.Executable>
rbdock ($Id: //depot/dev/client3/rdock/2013.1/src/exe/rbdock.cxx#4 $)

>  <Rbt.Library>
libRbt.so (2013.1, Build901 2013/11/27)

>  <Rbt.Parameter_File>
/home/fstefaniak/progs/rDock//data/scripts/dock_solv.prm

>  <Rbt.Receptor>
4tzx.prm

>  <SCORE>
-48.9924

>  <SCORE.INTER>
-29.837

>  <SCORE.INTER.CONST>
1

>  <SCORE.INTER.POLAR>
-3.34662

>  <SCORE.INTER.ROT>
1

>  <SCORE.INTER.SOLV>
11.9045

>  <SCORE.INTER.VDW>
-16.9707

>  <SCORE.INTER.norm>
-2.9837

>  <SCORE.INTRA>
1.87864

>  <SCORE.INTRA.DIHEDRAL>
3.05844

>  <SCORE.INTRA.DIHEDRAL.0>
3.34733e-06

>  <SCORE.INTRA.POLAR>
0.408846

>  <SCORE.INTRA.POLAR.0>
-0.916372

>  <SCORE.INTRA.REPUL>
0

>  <SCORE.INTRA.REPUL.0>
0

>  <SCORE.INTRA.SOLV>
-0.338524

>  <SCORE.INTRA.SOLV.lig_0>
-15.2423

>  <SCORE.INTRA.VDW>
-0.871392

>  <SCORE.INTRA.VDW.0>
0.939686

>  <SCORE.INTRA.norm>
0.187864

>  <SCORE.RESTR>
0

>  <SCORE.RESTR.CAVITY>
0

>  <SCORE.RESTR.norm>
0

>  <SCORE.SYSTEM>
-21.0341

>  <SCORE.SYSTEM.CONST>
0

>  <SCORE.SYSTEM.DIHEDRAL>
4.55398

>  <SCORE.SYSTEM.POLAR>
-3.08364

>  <SCORE.SYSTEM.SOLV>
0.192233

>  <SCORE.SYSTEM.VDW>
-5.32601

>  <SCORE.SYSTEM.norm>
-2.10341

>  <SCORE.heavy>
10

>  <SCORE.norm>
-4.89924

$$$$
P151024286
 OpenBabel12072022113D
libRbt.so/2013.1/901 2013/11/27
 13 13  0  0  0  0  0  0  0  0999 V2000
  -25.8895   15.7657  -16.8549 H   0  0  0  0  0  0  0  0  0  0  0  0
  -26.8606   16.1187  -16.8085 N   0  0  0  0  0  0  0  0  0  0  0  0
  -27.5499   15.2659  -16.1119 C   0  0  0  0  0  0  0  0  0  0  0  0
  -28.8641   15.4024  -15.8440 N   0  0  0  0  0  0  0  0  0  0  0  0
  -29.6526   16.4714  -16.2761 C   0  0  0  0  0  0  0  0  0  0  0  0
  -30.7530   16.8864  -15.5084 C   0  0  0  0  0  0  0  0  0  0  0  0
  -31.4704   17.9709  -16.0442 C   0  0  0  0  0  0  0  0  0  0  0  0
  -31.1149   18.5852  -17.2449 C   0  0  0  0  0  0  0  0  0  0  0  0
  -30.0147   18.1021  -17.9255 C   0  0  0  0  0  0  0  0  0  0  0  0
  -29.3335   17.0768  -17.4225 N   0  3  0  0  0  0  0  0  0  0  0  0
  -28.5073   16.6734  -17.8820 H   0  0  0  0  0  0  0  0  0  0  0  0
  -31.0741   16.3210  -14.4104 O   0  5  0  0  0  0  0  0  0  0  0  0
  -29.4342   14.7511  -15.2998 H   0  0  0  0  0  0  0  0  0  0  0  0
  1  2  1  0  0  0  0
  2  3  2  0  0  0  0
  3  4  1  0  0  0  0
  4  5  1  0  0  0  0
  4 13  1  0  0  0  0
  5  6  2  0  0  0  0
  5 10  1  0  0  0  0
  6  7  1  0  0  0  0
  6 12  1  0  0  0  0
  7  8  2  0  0  0  0
  8  9  1  0  0  0  0
  9 10  2  0  0  0  0
 10 11  1  0  0  0  0
M  CHG  2  10   1  12  -1
M  END
>  <CHROM.0>
-61.08992554,-59.60558279,-70.32411489,-43.60724909,-59.19779881,-58.86998208
-168.59959439,-59.27434560,-168.80273599

>  <CHROM.1>
-150.18274707,-29.62499881,16.77386055,-16.33835011,-0.29889668,0.44891645
-0.89411783

>  <Name>
P151024286

>  <RI>
0

>  <Rbt.Current_Directory>
/home/fstefaniak/projects/zuza/docking/adenine/4TZX

>  <Rbt.Executable>
rbdock ($Id: //depot/dev/client3/rdock/2013.1/src/exe/rbdock.cxx#4 $)

>  <Rbt.Library>
libRbt.so (2013.1, Build901 2013/11/27)

>  <Rbt.Parameter_File>
/home/fstefaniak/progs/rDock//data/scripts/dock_solv.prm

>  <Rbt.Receptor>
4tzx.prm

>  <SCORE>
-48.4675

>  <SCORE.INTER>
-29.8961

>  <SCORE.INTER.CONST>
1

>  <SCORE.INTER.POLAR>
-3.3657

>  <SCORE.INTER.ROT>
1

>  <SCORE.INTER.SOLV>
11.8983

>  <SCORE.INTER.VDW>
-16.9445

>  <SCORE.INTER.norm>
-2.98961

>  <SCORE.INTRA>
1.93776

>  <SCORE.INTRA.DIHEDRAL>
3.15853

>  <SCORE.INTRA.DIHEDRAL.0>
3.34733e-06

>  <SCORE.INTRA.POLAR>
0.419252

>  <SCORE.INTRA.POLAR.0>
-0.916372

>  <SCORE.INTRA.REPUL>
0

>  <SCORE.INTRA.REPUL.0>
0

>  <SCORE.INTRA.SOLV>
-0.349632

>  <SCORE.INTRA.SOLV.lig_0>
-15.2423

>  <SCORE.INTRA.VDW>
-0.892142

>  <SCORE.INTRA.VDW.0>
0.939686

>  <SCORE.INTRA.norm>
0.193776

>  <SCORE.RESTR>
0

>  <SCORE.RESTR.CAVITY>
0

>  <SCORE.RESTR.norm>
0

>  <SCORE.SYSTEM>
-20.5092

>  <SCORE.SYSTEM.CONST>
0

>  <SCORE.SYSTEM.DIHEDRAL>
4.95605

>  <SCORE.SYSTEM.POLAR>
-3.02708

>  <SCORE.SYSTEM.SOLV>
0.16436

>  <SCORE.SYSTEM.VDW>
-5.28933

>  <SCORE.SYSTEM.norm>
-2.05092

>  <SCORE.heavy>
10

>  <SCORE.norm>
-4.84675

$$$$
P151024286
 OpenBabel12072022113D
libRbt.so/2013.1/901 2013/11/27
 13 13  0  0  0  0  0  0  0  0999 V2000
  -25.8950   15.7895  -16.8769 H   0  0  0  0  0  0  0  0  0  0  0  0
  -26.8683   16.1359  -16.8268 N   0  0  0  0  0  0  0  0  0  0  0  0
  -27.5474   15.2823  -16.1213 C   0  0  0  0  0  0  0  0  0  0  0  0
  -28.8609   15.4111  -15.8464 N   0  0  0  0  0  0  0  0  0  0  0  0
  -29.6595   16.4720  -16.2800 C   0  0  0  0  0  0  0  0  0  0  0  0
  -30.7649   16.8765  -15.5139 C   0  0  0  0  0  0  0  0  0  0  0  0
  -31.4924   17.9535  -16.0511 C   0  0  0  0  0  0  0  0  0  0  0  0
  -31.1417   18.5707  -17.2517 C   0  0  0  0  0  0  0  0  0  0  0  0
  -30.0359   18.0982  -17.9308 C   0  0  0  0  0  0  0  0  0  0  0  0
  -29.3451   17.0799  -17.4264 N   0  3  0  0  0  0  0  0  0  0  0  0
  -28.5144   16.6845  -17.8847 H   0  0  0  0  0  0  0  0  0  0  0  0
  -31.0816   16.3085  -14.4159 O   0  5  0  0  0  0  0  0  0  0  0  0
  -29.4233   14.7590  -15.2951 H   0  0  0  0  0  0  0  0  0  0  0  0
  1  2  1  0  0  0  0
  2  3  2  0  0  0  0
  3  4  1  0  0  0  0
  4  5  1  0  0  0  0
  4 13  1  0  0  0  0
  5  6  2  0  0  0  0
  5 10  1  0  0  0  0
  6  7  1  0  0  0  0
  6 12  1  0  0  0  0
  7  8  2  0  0  0  0
  8  9  1  0  0  0  0
  9 10  2  0  0  0  0
 10 11  1  0  0  0  0
M  CHG  2  10   1  12  -1
M  END
>  <CHROM.0>
-60.31137691,-60.26200321,-70.66268472,-41.59914915,-59.40013406,-61.11546921
-169.39087498,-174.01031719,-168.60822050

>  <CHROM.1>
-150.71259777,-29.63560031,16.77302892,-16.34518309,-0.29060793,0.44344789
-0.89708968

>  <Name>
P151024286

>  <RI>
0

>  <Rbt.Current_Directory>
/home/fstefaniak/projects/zuza/docking/adenine/4TZX

>  <Rbt.Executable>
rbdock ($Id: //depot/dev/client3/rdock/2013.1/src/exe/rbdock.cxx#4 $)

>  <Rbt.Library>
libRbt.so (2013.1, Build901 2013/11/27)

>  <Rbt.Parameter_File>
/home/fstefaniak/progs/rDock//data/scripts/dock_solv.prm

>  <Rbt.Receptor>
4tzx.prm

>  <SCORE>
-48.4581

>  <SCORE.INTER>
-29.8645

>  <SCORE.INTER.CONST>
1

>  <SCORE.INTER.POLAR>
-3.34832

>  <SCORE.INTER.ROT>
1

>  <SCORE.INTER.SOLV>
11.8968

>  <SCORE.INTER.VDW>
-16.9809

>  <SCORE.INTER.norm>
-2.98645

>  <SCORE.INTRA>
1.87781

>  <SCORE.INTRA.DIHEDRAL>
3.05703

>  <SCORE.INTRA.DIHEDRAL.0>
3.34733e-06

>  <SCORE.INTRA.POLAR>
0.408698

>  <SCORE.INTRA.POLAR.0>
-0.916372

>  <SCORE.INTRA.REPUL>
0

>  <SCORE.INTRA.REPUL.0>
0

>  <SCORE.INTRA.SOLV>
-0.338367

>  <SCORE.INTRA.SOLV.lig_0>
-15.2423

>  <SCORE.INTRA.VDW>
-0.871096

>  <SCORE.INTRA.VDW.0>
0.939686

>  <SCORE.INTRA.norm>
0.187781

>  <SCORE.RESTR>
0

>  <SCORE.RESTR.CAVITY>
0

>  <SCORE.RESTR.norm>
0

>  <SCORE.SYSTEM>
-20.4714

>  <SCORE.SYSTEM.CONST>
0

>  <SCORE.SYSTEM.DIHEDRAL>
5.37351

>  <SCORE.SYSTEM.POLAR>
-3.05554

>  <SCORE.SYSTEM.SOLV>
0.0303639

>  <SCORE.SYSTEM.VDW>
-5.26376

>  <SCORE.SYSTEM.norm>
-2.04714

>  <SCORE.heavy>
10

>  <SCORE.norm>
-4.84581

$$$$
P151024354
 OpenBabel12072022113D
libRbt.so/2013.1/901 2013/11/27
 14 15  0  0  0  0  0  0  0  0999 V2000
  -28.8777   16.4230  -16.8342 C   0  0  0  0  0  0  0  0  0  0  0  0
  -28.8644   16.4986  -15.4309 C   0  0  0  0  0  0  0  0  0  0  0  0
  -29.6744   17.4261  -14.7285 C   0  0  0  0  0  0  0  0  0  0  0  0
  -30.5512   18.3397  -15.3742 C   0  0  0  0  0  0  0  0  0  0  0  0
  -30.5193   18.2159  -16.7615 C   0  0  0  0  0  0  0  0  0  0  0  0
  -29.7332   17.3144  -17.4672 C   0  0  0  0  0  0  0  0  0  0  0  0
  -30.0176   17.5382  -18.8074 N   0  3  0  0  0  0  0  0  0  0  0  0
  -29.6006   17.0345  -19.5790 H   0  0  0  0  0  0  0  0  0  0  0  0
  -30.9240   18.5180  -18.9265 C   0  0  0  0  0  0  0  0  0  0  0  0
  -31.2259   18.9249  -17.7092 N   0  0  0  0  0  0  0  0  0  0  0  0
  -31.8638   19.6417  -17.3684 H   0  0  0  0  0  0  0  0  0  0  0  0
  -31.3421   19.2300  -14.9260 O   0  5  0  0  0  0  0  0  0  0  0  0
  -29.6122   17.4462  -13.3561 O   0  0  0  0  0  0  0  0  0  0  0  0
  -29.5916   18.3572  -13.0376 H   0  0  0  0  0  0  0  0  0  0  0  0
  1  2  2  0  0  0  0
  1  6  1  0  0  0  0
  2  3  1  0  0  0  0
  3  4  2  0  0  0  0
  3 13  1  0  0  0  0
  4  5  1  0  0  0  0
  4 12  1  0  0  0  0
  5  6  2  0  0  0  0
  5 10  1  0  0  0  0
  6  7  1  0  0  0  0
  7  8  1  0  0  0  0
  7  9  2  0  0  0  0
  9 10  1  0  0  0  0
 10 11  1  0  0  0  0
 13 14  1  0  0  0  0
M  CHG  2   7   1  12  -1
M  END
>  <CHROM.0>
-61.92353788,45.67061728,-62.94636041,-43.19877410,-179.45209423,-62.35411307
-64.35304521,-58.47298379,-169.09128841

>  <CHROM.1>
137.10549047,-30.14737586,17.84388000,-16.34174381,-1.81775993,-0.82789802
1.50000825

>  <Name>
P151024354

>  <RI>
0

>  <Rbt.Current_Directory>
/home/fstefaniak/projects/zuza/docking/adenine/4TZX

>  <Rbt.Executable>
rbdock ($Id: //depot/dev/client3/rdock/2013.1/src/exe/rbdock.cxx#4 $)

>  <Rbt.Library>
libRbt.so (2013.1, Build901 2013/11/27)

>  <Rbt.Parameter_File>
/home/fstefaniak/progs/rDock//data/scripts/dock_solv.prm

>  <Rbt.Receptor>
4tzx.prm

>  <SCORE>
-49.3515

>  <SCORE.INTER>
-29.985

>  <SCORE.INTER.CONST>
1

>  <SCORE.INTER.POLAR>
-4.78974

>  <SCORE.INTER.ROT>
0

>  <SCORE.INTER.SOLV>
29.6263

>  <SCORE.INTER.VDW>
-17.4996

>  <SCORE.INTER.norm>
-2.72591

>  <SCORE.INTRA>
0.996781

>  <SCORE.INTRA.DIHEDRAL>
2.22393

>  <SCORE.INTRA.DIHEDRAL.0>
7.02657e-07

>  <SCORE.INTRA.POLAR>
0

>  <SCORE.INTRA.POLAR.0>
0

>  <SCORE.INTRA.REPUL>
0

>  <SCORE.INTRA.REPUL.0>
0

>  <SCORE.INTRA.SOLV>
0.56196

>  <SCORE.INTRA.SOLV.lig_0>
-48.4593

>  <SCORE.INTRA.VDW>
-0.396163

>  <SCORE.INTRA.VDW.0>
0.339633

>  <SCORE.INTRA.norm>
0.0906165

>  <SCORE.RESTR>
0

>  <SCORE.RESTR.CAVITY>
0

>  <SCORE.RESTR.norm>
0

>  <SCORE.SYSTEM>
-20.3633

>  <SCORE.SYSTEM.CONST>
0

>  <SCORE.SYSTEM.DIHEDRAL>
5.04408

>  <SCORE.SYSTEM.POLAR>
-3.11138

>  <SCORE.SYSTEM.SOLV>
0.116654

>  <SCORE.SYSTEM.VDW>
-4.92453

>  <SCORE.SYSTEM.norm>
-1.85121

>  <SCORE.heavy>
11

>  <SCORE.norm>
-4.4865

$$$$
P151024354
 OpenBabel12072022113D
libRbt.so/2013.1/901 2013/11/27
 14 15  0  0  0  0  0  0  0  0999 V2000
  -28.9169   16.3882  -16.8062 C   0  0  0  0  0  0  0  0  0  0  0  0
  -28.9024   16.4777  -15.4037 C   0  0  0  0  0  0  0  0  0  0  0  0
  -29.6962   17.4262  -14.7109 C   0  0  0  0  0  0  0  0  0  0  0  0
  -30.5568   18.3486  -15.3661 C   0  0  0  0  0  0  0  0  0  0  0  0
  -30.5269   18.2102  -16.7520 C   0  0  0  0  0  0  0  0  0  0  0  0
  -29.7566   17.2880  -17.4484 C   0  0  0  0  0  0  0  0  0  0  0  0
  -30.0369   17.5033  -18.7908 N   0  3  0  0  0  0  0  0  0  0  0  0
  -29.6287   16.9846  -19.5572 H   0  0  0  0  0  0  0  0  0  0  0  0
  -30.9260   18.4975  -18.9201 C   0  0  0  0  0  0  0  0  0  0  0  0
  -31.2208   18.9219  -17.7071 N   0  0  0  0  0  0  0  0  0  0  0  0
  -31.8461   19.6531  -17.3737 H   0  0  0  0  0  0  0  0  0  0  0  0
  -31.3320   19.2571  -14.9271 O   0  5  0  0  0  0  0  0  0  0  0  0
  -29.6337   17.4592  -13.3388 O   0  0  0  0  0  0  0  0  0  0  0  0
  -29.5830   18.3724  -13.0301 H   0  0  0  0  0  0  0  0  0  0  0  0
  1  2  2  0  0  0  0
  1  6  1  0  0  0  0
  2  3  1  0  0  0  0
  3  4  2  0  0  0  0
  3 13  1  0  0  0  0
  4  5  1  0  0  0  0
  4 12  1  0  0  0  0
  5  6  2  0  0  0  0
  5 10  1  0  0  0  0
  6  7  1  0  0  0  0
  7  8  1  0  0  0  0
  7  9  2  0  0  0  0
  9 10  1  0  0  0  0
 10 11  1  0  0  0  0
 13 14  1  0  0  0  0
M  CHG  2   7   1  12  -1
M  END
>  <CHROM.0>
-57.15049913,48.42164620,-63.64784400,-42.48765663,-58.06742627,-63.59943038
-68.60148780,-57.96238449,-169.23571169

>  <CHROM.1>
136.20351545,-30.16147811,17.83599212,-16.32845014,-1.81967494,-0.84536366
1.48853832

>  <Name>
P151024354

>  <RI>
0

>  <Rbt.Current_Directory>
/home/fstefaniak/projects/zuza/docking/adenine/4TZX

>  <Rbt.Executable>
rbdock ($Id: //depot/dev/client3/rdock/2013.1/src/exe/rbdock.cxx#4 $)

>  <Rbt.Library>
libRbt.so (2013.1, Build901 2013/11/27)

>  <Rbt.Parameter_File>
/home/fstefaniak/progs/rDock//data/scripts/dock_solv.prm

>  <Rbt.Receptor>
4tzx.prm

>  <SCORE>
-49.2277

>  <SCORE.INTER>
-30.0029

>  <SCORE.INTER.CONST>
1

>  <SCORE.INTER.POLAR>
-4.78887

>  <SCORE.INTER.ROT>
0

>  <SCORE.INTER.SOLV>
29.6937

>  <SCORE.INTER.VDW>
-17.5369

>  <SCORE.INTER.norm>
-2.72753

>  <SCORE.INTRA>
1.0282

>  <SCORE.INTRA.DIHEDRAL>
2.29936

>  <SCORE.INTRA.DIHEDRAL.0>
7.02657e-07

>  <SCORE.INTRA.POLAR>
0

>  <SCORE.INTRA.POLAR.0>
0

>  <SCORE.INTRA.REPUL>
0

>  <SCORE.INTRA.REPUL.0>
0

>  <SCORE.INTRA.SOLV>
0.558585

>  <SCORE.INTRA.SOLV.lig_0>
-48.4593

>  <SCORE.INTRA.VDW>
-0.400779

>  <SCORE.INTRA.VDW.0>
0.339633

>  <SCORE.INTRA.norm>
0.0934723

>  <SCORE.RESTR>
0

>  <SCORE.RESTR.CAVITY>
0

>  <SCORE.RESTR.norm>
0

>  <SCORE.SYSTEM>
-20.253

>  <SCORE.SYSTEM.CONST>
0

>  <SCORE.SYSTEM.DIHEDRAL>
5.15898

>  <SCORE.SYSTEM.POLAR>
-3.1286

>  <SCORE.SYSTEM.SOLV>
0.291564

>  <SCORE.SYSTEM.VDW>
-4.8902

>  <SCORE.SYSTEM.norm>
-1.84119

>  <SCORE.heavy>
11

>  <SCORE.norm>
-4.47525

$$$$
P151024354
 OpenBabel12072022113D
libRbt.so/2013.1/901 2013/11/27
 14 15  0  0  0  0  0  0  0  0999 V2000
  -28.8738   16.4300  -16.8226 C   0  0  0  0  0  0  0  0  0  0  0  0
  -28.8616   16.5087  -15.4195 C   0  0  0  0  0  0  0  0  0  0  0  0
  -29.6721   17.4378  -14.7197 C   0  0  0  0  0  0  0  0  0  0  0  0
  -30.5483   18.3501  -15.3681 C   0  0  0  0  0  0  0  0  0  0  0  0
  -30.5152   18.2233  -16.7551 C   0  0  0  0  0  0  0  0  0  0  0  0
  -29.7287   17.3201  -17.4582 C   0  0  0  0  0  0  0  0  0  0  0  0
  -30.0120   17.5411  -18.7991 N   0  3  0  0  0  0  0  0  0  0  0  0
  -29.5944   17.0357  -19.5693 H   0  0  0  0  0  0  0  0  0  0  0  0
  -30.9182   18.5207  -18.9211 C   0  0  0  0  0  0  0  0  0  0  0  0
  -31.2210   18.9303  -17.7050 N   0  0  0  0  0  0  0  0  0  0  0  0
  -31.8591   19.6479  -17.3662 H   0  0  0  0  0  0  0  0  0  0  0  0
  -31.3395   19.2415  -14.9225 O   0  5  0  0  0  0  0  0  0  0  0  0
  -29.6109   17.4609  -13.3473 O   0  0  0  0  0  0  0  0  0  0  0  0
  -29.5921   18.3726  -13.0307 H   0  0  0  0  0  0  0  0  0  0  0  0
  1  2  2  0  0  0  0
  1  6  1  0  0  0  0
  2  3  1  0  0  0  0
  3  4  2  0  0  0  0
  3 13  1  0  0  0  0
  4  5  1  0  0  0  0
  4 12  1  0  0  0  0
  5  6  2  0  0  0  0
  5 10  1  0  0  0  0
  6  7  1  0  0  0  0
  7  8  1  0  0  0  0
  7  9  2  0  0  0  0
  9 10  1  0  0  0  0
 10 11  1  0  0  0  0
 13 14  1  0  0  0  0
M  CHG  2   7   1  12  -1
M  END
>  <CHROM.0>
-61.31883650,47.98095013,-69.09885002,-43.36711110,-57.51080582,-62.53689760
-65.72777561,-58.72467936,-169.20295637

>  <CHROM.1>
137.20440570,-30.14372232,17.85213348,-16.33425689,-1.81657485,-0.82806553
1.49869691

>  <Name>
P151024354

>  <RI>
0

>  <Rbt.Current_Directory>
/home/fstefaniak/projects/zuza/docking/adenine/4TZX

>  <Rbt.Executable>
rbdock ($Id: //depot/dev/client3/rdock/2013.1/src/exe/rbdock.cxx#4 $)

>  <Rbt.Library>
libRbt.so (2013.1, Build901 2013/11/27)

>  <Rbt.Parameter_File>
/home/fstefaniak/progs/rDock//data/scripts/dock_solv.prm

>  <Rbt.Receptor>
4tzx.prm

>  <SCORE>
-49.221

>  <SCORE.INTER>
-29.8988

>  <SCORE.INTER.CONST>
1

>  <SCORE.INTER.POLAR>
-4.81507

>  <SCORE.INTER.ROT>
0

>  <SCORE.INTER.SOLV>
29.667

>  <SCORE.INTER.VDW>
-17.3713

>  <SCORE.INTER.norm>
-2.71807

>  <SCORE.INTRA>
0.993344

>  <SCORE.INTRA.DIHEDRAL>
2.21567

>  <SCORE.INTRA.DIHEDRAL.0>
7.02657e-07

>  <SCORE.INTRA.POLAR>
0

>  <SCORE.INTRA.POLAR.0>
0

>  <SCORE.INTRA.REPUL>
0

>  <SCORE.INTRA.REPUL.0>
0

>  <SCORE.INTRA.SOLV>
0.562326

>  <SCORE.INTRA.SOLV.lig_0>
-48.4593

>  <SCORE.INTRA.VDW>
-0.395652

>  <SCORE.INTRA.VDW.0>
0.339633

>  <SCORE.INTRA.norm>
0.090304

>  <SCORE.RESTR>
0

>  <SCORE.RESTR.CAVITY>
0

>  <SCORE.RESTR.norm>
0

>  <SCORE.SYSTEM>
-20.3156

>  <SCORE.SYSTEM.CONST>
0

>  <SCORE.SYSTEM.DIHEDRAL>
5.15149

>  <SCORE.SYSTEM.POLAR>
-3.0849

>  <SCORE.SYSTEM.SOLV>
0.283913

>  <SCORE.SYSTEM.VDW>
-5.07249

>  <SCORE.SYSTEM.norm>
-1.84687

>  <SCORE.heavy>
11

>  <SCORE.norm>
-4.47463

$$$$
P151025485
 OpenBabel12072022113D
libRbt.so/2013.1/901 2013/11/27
 16 16  0  0  0  0  0  0  0  0999 V2000
  -30.4566   16.0638  -15.6471 C   0  0  0  0  0  0  0  0  0  0  0  0
  -29.5317   16.2172  -16.8559 C   0  0  1  0  0  0  0  0  0  0  0  0
  -30.0003   17.3404  -17.7770 C   0  0  0  0  0  0  0  0  0  0  0  0
  -30.1052   18.6701  -17.0262 C   0  0  2  0  0  0  0  0  0  0  0  0
  -30.9577   18.5517  -15.7500 C   0  0  2  0  0  0  0  0  0  0  0  0
  -30.5546   17.3694  -14.8479 C   0  0  2  0  0  0  0  0  0  0  0  0
  -29.2392   17.6160  -14.1820 N   0  3  0  0  0  0  0  0  0  0  0  0
  -28.4866   17.6241  -14.9018 H   0  0  0  0  0  0  0  0  0  0  0  0
  -29.2029   18.4917  -13.6476 H   0  0  0  0  0  0  0  0  0  0  0  0
  -29.0017   16.8463  -13.5439 H   0  0  0  0  0  0  0  0  0  0  0  0
  -32.3275   18.3742  -16.1289 O   0  0  0  0  0  0  0  0  0  0  0  0
  -30.7205   19.6500  -17.8622 O   0  0  0  0  0  0  0  0  0  0  0  0
  -28.2256   16.5478  -16.3555 O   0  0  0  0  0  0  0  0  0  0  0  0
  -32.3576   17.5262  -16.6254 H   0  0  0  0  0  0  0  0  0  0  0  0
  -31.0844   20.3598  -17.2995 H   0  0  0  0  0  0  0  0  0  0  0  0
  -27.6285   16.5436  -17.1364 H   0  0  0  0  0  0  0  0  0  0  0  0
  1  2  1  0  0  0  0
  1  6  1  0  0  0  0
  2  3  1  0  0  0  0
  2 13  1  1  0  0  0
  3  4  1  0  0  0  0
  4 12  1  6  0  0  0
  4  5  1  0  0  0  0
  5 11  1  6  0  0  0
  5  6  1  0  0  0  0
  6  7  1  6  0  0  0
  7  8  1  0  0  0  0
  7  9  1  0  0  0  0
  7 10  1  0  0  0  0
 11 14  1  0  0  0  0
 12 15  1  0  0  0  0
 13 16  1  0  0  0  0
M  CHG  1   7   1
M  END
>  <CHROM.0>
-60.67217909,-57.20645444,-63.86483544,-42.53984785,-177.63953758,-61.32688700
-68.89008211,-177.07060680,-168.84282898

>  <CHROM.1>
173.90959398,158.87737450,62.47772456,55.77558290,-30.19459744,17.67093357
-16.23914367,0.69707598,-0.69592280,1.91458334

>  <Name>
P151025485

>  <RI>
0

>  <Rbt.Current_Directory>
/home/fstefaniak/projects/zuza/docking/adenine/4TZX

>  <Rbt.Executable>
rbdock ($Id: //depot/dev/client3/rdock/2013.1/src/exe/rbdock.cxx#4 $)

>  <Rbt.Library>
libRbt.so (2013.1, Build901 2013/11/27)

>  <Rbt.Parameter_File>
/home/fstefaniak/progs/rDock//data/scripts/dock_solv.prm

>  <Rbt.Receptor>
4tzx.prm

>  <SCORE>
-46.259

>  <SCORE.INTER>
-26.2077

>  <SCORE.INTER.CONST>
1

>  <SCORE.INTER.POLAR>
-3.88103

>  <SCORE.INTER.ROT>
0

>  <SCORE.INTER.SOLV>
19.7924

>  <SCORE.INTER.VDW>
-14.7325

>  <SCORE.INTER.norm>
-2.62077

>  <SCORE.INTRA>
1.17329

>  <SCORE.INTRA.DIHEDRAL>
-1.6469

>  <SCORE.INTRA.DIHEDRAL.0>
3.92792

>  <SCORE.INTRA.POLAR>
0.440971

>  <SCORE.INTRA.POLAR.0>
-1.15089

>  <SCORE.INTRA.REPUL>
0

>  <SCORE.INTRA.REPUL.0>
0

>  <SCORE.INTRA.SOLV>
-0.0630014

>  <SCORE.INTRA.SOLV.lig_0>
-33.1626

>  <SCORE.INTRA.VDW>
0.528936

>  <SCORE.INTRA.VDW.0>
0.0824476

>  <SCORE.INTRA.norm>
0.117329

>  <SCORE.RESTR>
0

>  <SCORE.RESTR.CAVITY>
0

>  <SCORE.RESTR.norm>
0

>  <SCORE.SYSTEM>
-21.2246

>  <SCORE.SYSTEM.CONST>
0

>  <SCORE.SYSTEM.DIHEDRAL>
4.56979

>  <SCORE.SYSTEM.POLAR>
-3.05603

>  <SCORE.SYSTEM.SOLV>
-0.13205

>  <SCORE.SYSTEM.VDW>
-5.44222

>  <SCORE.SYSTEM.norm>
-2.12246

>  <SCORE.heavy>
10

>  <SCORE.norm>
-4.6259

$$$$
P151025485
 OpenBabel12072022113D
libRbt.so/2013.1/901 2013/11/27
 16 16  0  0  0  0  0  0  0  0999 V2000
  -30.5236   16.0791  -15.6144 C   0  0  0  0  0  0  0  0  0  0  0  0
  -29.5978   16.1952  -16.8267 C   0  0  1  0  0  0  0  0  0  0  0  0
  -30.0100   17.3516  -17.7337 C   0  0  0  0  0  0  0  0  0  0  0  0
  -30.0396   18.6771  -16.9688 C   0  0  2  0  0  0  0  0  0  0  0  0
  -30.8908   18.5911  -15.6892 C   0  0  2  0  0  0  0  0  0  0  0  0
  -30.5473   17.3796  -14.8015 C   0  0  2  0  0  0  0  0  0  0  0  0
  -29.2172   17.5483  -14.1404 N   0  3  0  0  0  0  0  0  0  0  0  0
  -29.2094   18.4441  -13.6093 H   0  0  0  0  0  0  0  0  0  0  0  0
  -28.9687   16.7796  -13.5071 H   0  0  0  0  0  0  0  0  0  0  0  0
  -28.4692   17.6361  -14.8396 H   0  0  0  0  0  0  0  0  0  0  0  0
  -32.2701   18.4915  -16.0622 O   0  0  0  0  0  0  0  0  0  0  0  0
  -30.6055   19.6973  -17.7913 O   0  0  0  0  0  0  0  0  0  0  0  0
  -28.2733   16.4500  -16.3302 O   0  0  0  0  0  0  0  0  0  0  0  0
  -32.3830   17.5827  -16.4200 H   0  0  0  0  0  0  0  0  0  0  0  0
  -30.3843   20.5679  -17.4095 H   0  0  0  0  0  0  0  0  0  0  0  0
  -27.6768   16.3890  -17.1092 H   0  0  0  0  0  0  0  0  0  0  0  0
  1  2  1  0  0  0  0
  1  6  1  0  0  0  0
  2  3  1  0  0  0  0
  2 13  1  1  0  0  0
  3  4  1  0  0  0  0
  4 12  1  6  0  0  0
  4  5  1  0  0  0  0
  5 11  1  6  0  0  0
  5  6  1  0  0  0  0
  6  7  1  6  0  0  0
  7  8  1  0  0  0  0
  7  9  1  0  0  0  0
  7 10  1  0  0  0  0
 11 14  1  0  0  0  0
 12 15  1  0  0  0  0
 13 16  1  0  0  0  0
M  CHG  1   7   1
M  END
>  <CHROM.0>
-60.36855856,-65.65988792,-72.01753351,-43.55673752,-176.28702240,-63.82428890
-171.32586812,-60.40301391,-167.87366523

>  <CHROM.1>
171.86570877,-163.58211593,72.54599571,178.19239768,-30.17526959,17.67732737
-16.19164500,0.73061522,-0.74691785,1.94962768

>  <Name>
P151025485

>  <RI>
0

>  <Rbt.Current_Directory>
/home/fstefaniak/projects/zuza/docking/adenine/4TZX

>  <Rbt.Executable>
rbdock ($Id: //depot/dev/client3/rdock/2013.1/src/exe/rbdock.cxx#4 $)

>  <Rbt.Library>
libRbt.so (2013.1, Build901 2013/11/27)

>  <Rbt.Parameter_File>
/home/fstefaniak/progs/rDock//data/scripts/dock_solv.prm

>  <Rbt.Receptor>
4tzx.prm

>  <SCORE>
-44.7376

>  <SCORE.INTER>
-25.1902

>  <SCORE.INTER.CONST>
1

>  <SCORE.INTER.POLAR>
-3.87636

>  <SCORE.INTER.ROT>
0

>  <SCORE.INTER.SOLV>
20.044

>  <SCORE.INTER.VDW>
-14.1536

>  <SCORE.INTER.norm>
-2.51902

>  <SCORE.INTRA>
1.18535

>  <SCORE.INTRA.DIHEDRAL>
-1.53969

>  <SCORE.INTRA.DIHEDRAL.0>
3.92792

>  <SCORE.INTRA.POLAR>
0.603881

>  <SCORE.INTRA.POLAR.0>
-1.15089

>  <SCORE.INTRA.REPUL>
0

>  <SCORE.INTRA.REPUL.0>
0

>  <SCORE.INTRA.SOLV>
-0.233095

>  <SCORE.INTRA.SOLV.lig_0>
-33.1626

>  <SCORE.INTRA.VDW>
0.0185464

>  <SCORE.INTRA.VDW.0>
0.0824476

>  <SCORE.INTRA.norm>
0.118535

>  <SCORE.RESTR>
0

>  <SCORE.RESTR.CAVITY>
0

>  <SCORE.RESTR.norm>
0

>  <SCORE.SYSTEM>
-20.7328

>  <SCORE.SYSTEM.CONST>
0

>  <SCORE.SYSTEM.DIHEDRAL>
5.24667

>  <SCORE.SYSTEM.POLAR>
-3.0215

>  <SCORE.SYSTEM.SOLV>
-0.0400773

>  <SCORE.SYSTEM.VDW>
-5.48571

>  <SCORE.SYSTEM.norm>
-2.07328

>  <SCORE.heavy>
10

>  <SCORE.norm>
-4.47376

$$$$
P151025485
 OpenBabel12072022113D
libRbt.so/2013.1/901 2013/11/27
 16 16  0  0  0  0  0  0  0  0999 V2000
  -28.2303   13.3765  -15.9509 C   0  0  0  0  0  0  0  0  0  0  0  0
  -28.7461   14.7905  -16.2246 C   0  0  1  0  0  0  0  0  0  0  0  0
  -27.6653   15.8372  -15.9677 C   0  0  0  0  0  0  0  0  0  0  0  0
  -26.4145   15.5648  -16.8068 C   0  0  2  0  0  0  0  0  0  0  0  0
  -25.9011   14.1240  -16.6344 C   0  0  2  0  0  0  0  0  0  0  0  0
  -26.9976   13.0551  -16.8053 C   0  0  2  0  0  0  0  0  0  0  0  0
  -27.4282   12.9397  -18.2321 N   0  3  0  0  0  0  0  0  0  0  0  0
  -28.1904   12.2337  -18.3042 H   0  0  0  0  0  0  0  0  0  0  0  0
  -27.7497   13.8247  -18.6409 H   0  0  0  0  0  0  0  0  0  0  0  0
  -26.6638   12.5804  -18.8175 H   0  0  0  0  0  0  0  0  0  0  0  0
  -25.3497   13.9882  -15.3195 O   0  0  0  0  0  0  0  0  0  0  0  0
  -25.3634   16.4441  -16.4071 O   0  0  0  0  0  0  0  0  0  0  0  0
  -29.1212   14.8477  -17.6109 O   0  0  0  0  0  0  0  0  0  0  0  0
  -24.5694   14.5859  -15.2961 H   0  0  0  0  0  0  0  0  0  0  0  0
  -25.6345   17.3632  -16.5929 H   0  0  0  0  0  0  0  0  0  0  0  0
  -29.5746   15.7115  -17.7322 H   0  0  0  0  0  0  0  0  0  0  0  0
  1  2  1  0  0  0  0
  1  6  1  0  0  0  0
  2  3  1  0  0  0  0
  2 13  1  6  0  0  0
  3  4  1  0  0  0  0
  4 12  1  1  0  0  0
  4  5  1  0  0  0  0
  5 11  1  1  0  0  0
  5  6  1  0  0  0  0
  6  7  1  6  0  0  0
  7  8  1  0  0  0  0
  7  9  1  0  0  0  0
  7 10  1  0  0  0  0
 11 14  1  0  0  0  0
 12 15  1  0  0  0  0
 13 16  1  0  0  0  0
M  CHG  1   7   1
M  END
>  <CHROM.0>
-59.83185543,-89.60792082,-68.56948485,-43.02778660,-56.86976014,-59.73454950
-66.35808930,-57.80378758,-168.75848974

>  <CHROM.1>
171.54606640,-63.36802949,-64.83379838,-55.15925785,-27.10186462,14.51927488
-16.62862747,-2.60589534,-0.29121333,0.20075391

>  <Name>
P151025485

>  <RI>
0

>  <Rbt.Current_Directory>
/home/fstefaniak/projects/zuza/docking/adenine/4TZX

>  <Rbt.Executable>
rbdock ($Id: //depot/dev/client3/rdock/2013.1/src/exe/rbdock.cxx#4 $)

>  <Rbt.Library>
libRbt.so (2013.1, Build901 2013/11/27)

>  <Rbt.Parameter_File>
/home/fstefaniak/progs/rDock//data/scripts/dock_solv.prm

>  <Rbt.Receptor>
4tzx.prm

>  <SCORE>
-44.3569

>  <SCORE.INTER>
-24.9481

>  <SCORE.INTER.CONST>
1

>  <SCORE.INTER.POLAR>
-4.30129

>  <SCORE.INTER.ROT>
0

>  <SCORE.INTER.SOLV>
17.1511

>  <SCORE.INTER.VDW>
-11.6115

>  <SCORE.INTER.norm>
-2.49481

>  <SCORE.INTRA>
0.244856

>  <SCORE.INTRA.DIHEDRAL>
-3.21378

>  <SCORE.INTRA.DIHEDRAL.0>
3.92792

>  <SCORE.INTRA.POLAR>
0.737907

>  <SCORE.INTRA.POLAR.0>
-1.15089

>  <SCORE.INTRA.REPUL>
0

>  <SCORE.INTRA.REPUL.0>
0

>  <SCORE.INTRA.SOLV>
-0.255176

>  <SCORE.INTRA.SOLV.lig_0>
-33.1626

>  <SCORE.INTRA.VDW>
-0.529551

>  <SCORE.INTRA.VDW.0>
0.0824476

>  <SCORE.INTRA.norm>
0.0244856

>  <SCORE.RESTR>
0

>  <SCORE.RESTR.CAVITY>
0

>  <SCORE.RESTR.norm>
0

>  <SCORE.SYSTEM>
-19.6536

>  <SCORE.SYSTEM.CONST>
0

>  <SCORE.SYSTEM.DIHEDRAL>
8.00501

>  <SCORE.SYSTEM.POLAR>
-3.05325

>  <SCORE.SYSTEM.SOLV>
0.167674

>  <SCORE.SYSTEM.VDW>
-5.64914

>  <SCORE.SYSTEM.norm>
-1.96536

>  <SCORE.heavy>
10

>  <SCORE.norm>
-4.43569

$$$$
P151028160
 OpenBabel12072022113D
libRbt.so/2013.1/901 2013/11/27
 13 13  0  0  0  0  0  0  0  0999 V2000
  -27.7625   16.2656  -16.1034 H   0  0  0  0  0  0  0  0  0  0  0  0
  -28.4017   16.7274  -16.7560 N   0  0  0  0  0  0  0  0  0  0  0  0
  -29.3836   17.2818  -16.1386 C   0  0  0  0  0  0  0  0  0  0  0  0
  -29.5990   17.2740  -14.6622 C   0  0  0  0  0  0  0  0  0  0  0  0
  -30.8645   18.0624  -14.5588 C   0  0  0  0  0  0  0  0  0  0  0  0
  -31.3421   18.4660  -15.6955 N   0  0  0  0  0  0  0  0  0  0  0  0
  -30.4541   18.0060  -16.6832 N   0  0  0  0  0  0  0  0  0  0  0  0
  -30.7079   18.2963  -18.0331 C   0  0  0  0  0  0  0  0  0  0  0  0
  -30.0684   17.9255  -19.0104 O   0  0  0  0  0  0  0  0  0  0  0  0
  -31.8162   19.0864  -18.2141 N   0  0  0  0  0  0  0  0  0  0  0  0
  -31.5021   18.3482  -13.2437 C   0  0  0  0  0  0  0  0  0  0  0  0
  -32.0827   19.2661  -19.1729 H   0  0  0  0  0  0  0  0  0  0  0  0
  -32.0139   19.7670  -17.4963 H   0  0  0  0  0  0  0  0  0  0  0  0
  1  2  1  0  0  0  0
  2  3  2  0  0  0  0
  3  4  1  0  0  0  0
  3  7  1  0  0  0  0
  4  5  1  0  0  0  0
  5  6  2  0  0  0  0
  5 11  1  0  0  0  0
  6  7  1  0  0  0  0
  7  8  1  0  0  0  0
  8  9  2  0  0  0  0
  8 10  1  0  0  0  0
 10 12  1  0  0  0  0
 10 13  1  0  0  0  0
M  END
>  <CHROM.0>
-60.30806599,179.55507436,-64.31431263,-43.42894949,-52.78557360,-60.68148247
-68.47226639,-173.28853397,-168.46235480

>  <CHROM.1>
-175.51704920,-30.42541427,17.96328579,-16.34571397,-1.64402914,0.57419725
-1.47474730

>  <Name>
P151028160

>  <RI>
0

>  <Rbt.Current_Directory>
/home/fstefaniak/projects/zuza/docking/adenine/4TZX

>  <Rbt.Executable>
rbdock ($Id: //depot/dev/client3/rdock/2013.1/src/exe/rbdock.cxx#4 $)

>  <Rbt.Library>
libRbt.so (2013.1, Build901 2013/11/27)

>  <Rbt.Parameter_File>
/home/fstefaniak/progs/rDock//data/scripts/dock_solv.prm

>  <Rbt.Receptor>
4tzx.prm

>  <SCORE>
-52.3423

>  <SCORE.INTER>
-31.7838

>  <SCORE.INTER.CONST>
1

>  <SCORE.INTER.POLAR>
-4.22975

>  <SCORE.INTER.ROT>
1

>  <SCORE.INTER.SOLV>
12.1938

>  <SCORE.INTER.VDW>
-15.4213

>  <SCORE.INTER.norm>
-3.17838

>  <SCORE.INTRA>
0.360548

>  <SCORE.INTRA.DIHEDRAL>
0.00309942

>  <SCORE.INTRA.DIHEDRAL.0>
0.478022

>  <SCORE.INTRA.POLAR>
0.116207

>  <SCORE.INTRA.POLAR.0>
-0.116207

>  <SCORE.INTRA.REPUL>
0

>  <SCORE.INTRA.REPUL.0>
0

>  <SCORE.INTRA.SOLV>
-0.0169455

>  <SCORE.INTRA.SOLV.lig_0>
-14.5875

>  <SCORE.INTRA.VDW>
-0.0276321

>  <SCORE.INTRA.VDW.0>
-0.11601

>  <SCORE.INTRA.norm>
0.0360548

>  <SCORE.RESTR>
0

>  <SCORE.RESTR.CAVITY>
0

>  <SCORE.RESTR.norm>
0

>  <SCORE.SYSTEM>
-20.9191

>  <SCORE.SYSTEM.CONST>
0

>  <SCORE.SYSTEM.DIHEDRAL>
4.79146

>  <SCORE.SYSTEM.POLAR>
-3.06236

>  <SCORE.SYSTEM.SOLV>
0.0322313

>  <SCORE.SYSTEM.VDW>
-5.34609

>  <SCORE.SYSTEM.norm>
-2.09191

>  <SCORE.heavy>
10

>  <SCORE.norm>
-5.23423

$$$$
P151028160
 OpenBabel12072022113D
libRbt.so/2013.1/901 2013/11/27
 13 13  0  0  0  0  0  0  0  0999 V2000
  -27.7793   16.2670  -16.0805 H   0  0  0  0  0  0  0  0  0  0  0  0
  -28.4078   16.7357  -16.7386 N   0  0  0  0  0  0  0  0  0  0  0  0
  -29.3984   17.2857  -16.1313 C   0  0  0  0  0  0  0  0  0  0  0  0
  -29.6366   17.2648  -14.6586 C   0  0  0  0  0  0  0  0  0  0  0  0
  -30.9025   18.0540  -14.5674 C   0  0  0  0  0  0  0  0  0  0  0  0
  -31.3621   18.4685  -15.7077 N   0  0  0  0  0  0  0  0  0  0  0  0
  -30.4595   18.0164  -16.6857 N   0  0  0  0  0  0  0  0  0  0  0  0
  -30.6921   18.3193  -18.0366 C   0  0  0  0  0  0  0  0  0  0  0  0
  -30.0381   17.9565  -19.0073 O   0  0  0  0  0  0  0  0  0  0  0  0
  -31.7966   19.1125  -18.2275 N   0  0  0  0  0  0  0  0  0  0  0  0
  -31.5600   18.3287  -13.2598 C   0  0  0  0  0  0  0  0  0  0  0  0
  -32.0652   19.2774  -19.1884 H   0  0  0  0  0  0  0  0  0  0  0  0
  -31.9881   19.8062  -17.5207 H   0  0  0  0  0  0  0  0  0  0  0  0
  1  2  1  0  0  0  0
  2  3  2  0  0  0  0
  3  4  1  0  0  0  0
  3  7  1  0  0  0  0
  4  5  1  0  0  0  0
  5  6  2  0  0  0  0
  5 11  1  0  0  0  0
  6  7  1  0  0  0  0
  7  8  1  0  0  0  0
  8  9  2  0  0  0  0
  8 10  1  0  0  0  0
 10 12  1  0  0  0  0
 10 13  1  0  0  0  0
M  END
>  <CHROM.0>
-60.62411973,178.76744679,-61.79477643,-43.35824043,-57.18283668,-63.15728389
-67.79867309,-58.75831914,-169.02092288

>  <CHROM.1>
-173.66833700,-30.43610750,17.97047609,-16.34833329,-1.66220371,0.57384503
-1.45579269

>  <Name>
P151028160

>  <RI>
0

>  <Rbt.Current_Directory>
/home/fstefaniak/projects/zuza/docking/adenine/4TZX

>  <Rbt.Executable>
rbdock ($Id: //depot/dev/client3/rdock/2013.1/src/exe/rbdock.cxx#4 $)

>  <Rbt.Library>
libRbt.so (2013.1, Build901 2013/11/27)

>  <Rbt.Parameter_File>
/home/fstefaniak/progs/rDock//data/scripts/dock_solv.prm

>  <Rbt.Receptor>
4tzx.prm

>  <SCORE>
-52.3201

>  <SCORE.INTER>
-31.691

>  <SCORE.INTER.CONST>
1

>  <SCORE.INTER.POLAR>
-4.23559

>  <SCORE.INTER.ROT>
1

>  <SCORE.INTER.SOLV>
12.2388

>  <SCORE.INTER.VDW>
-15.355

>  <SCORE.INTER.norm>
-3.1691

>  <SCORE.INTRA>
0.357124

>  <SCORE.INTRA.DIHEDRAL>
0.00293238

>  <SCORE.INTRA.DIHEDRAL.0>
0.478022

>  <SCORE.INTRA.POLAR>
0.116207

>  <SCORE.INTRA.POLAR.0>
-0.116207

>  <SCORE.INTRA.REPUL>
0

>  <SCORE.INTRA.REPUL.0>
0

>  <SCORE.INTRA.SOLV>
-0.019034

>  <SCORE.INTRA.SOLV.lig_0>
-14.5875

>  <SCORE.INTRA.VDW>
-0.0299288

>  <SCORE.INTRA.VDW.0>
-0.11601

>  <SCORE.INTRA.norm>
0.0357124

>  <SCORE.RESTR>
0

>  <SCORE.RESTR.CAVITY>
0

>  <SCORE.RESTR.norm>
0

>  <SCORE.SYSTEM>
-20.9863

>  <SCORE.SYSTEM.CONST>
0

>  <SCORE.SYSTEM.DIHEDRAL>
4.28788

>  <SCORE.SYSTEM.POLAR>
-3.05221

>  <SCORE.SYSTEM.SOLV>
0.164088

>  <SCORE.SYSTEM.VDW>
-5.30079

>  <SCORE.SYSTEM.norm>
-2.09863

>  <SCORE.heavy>
10

>  <SCORE.norm>
-5.23201

$$$$
P151028160
 OpenBabel12072022113D
libRbt.so/2013.1/901 2013/11/27
 13 13  0  0  0  0  0  0  0  0999 V2000
  -27.7518   16.2882  -16.0648 H   0  0  0  0  0  0  0  0  0  0  0  0
  -28.3806   16.7530  -16.7254 N   0  0  0  0  0  0  0  0  0  0  0  0
  -29.3755   17.2993  -16.1218 C   0  0  0  0  0  0  0  0  0  0  0  0
  -29.6177   17.2795  -14.6497 C   0  0  0  0  0  0  0  0  0  0  0  0
  -30.8876   18.0630  -14.5634 C   0  0  0  0  0  0  0  0  0  0  0  0
  -31.3458   18.4736  -15.7055 N   0  0  0  0  0  0  0  0  0  0  0  0
  -30.4384   18.0242  -16.6803 N   0  0  0  0  0  0  0  0  0  0  0  0
  -30.6686   18.3240  -18.0324 C   0  0  0  0  0  0  0  0  0  0  0  0
  -30.0101   17.9628  -19.0007 O   0  0  0  0  0  0  0  0  0  0  0  0
  -31.7761   19.1118  -18.2276 N   0  0  0  0  0  0  0  0  0  0  0  0
  -31.5500   18.3366  -13.2580 C   0  0  0  0  0  0  0  0  0  0  0  0
  -32.0400   19.2778  -19.1895 H   0  0  0  0  0  0  0  0  0  0  0  0
  -31.9754   19.8027  -17.5202 H   0  0  0  0  0  0  0  0  0  0  0  0
  1  2  1  0  0  0  0
  2  3  2  0  0  0  0
  3  4  1  0  0  0  0
  3  7  1  0  0  0  0
  4  5  1  0  0  0  0
  5  6  2  0  0  0  0
  5 11  1  0  0  0  0
  6  7  1  0  0  0  0
  7  8  1  0  0  0  0
  8  9  2  0  0  0  0
  8 10  1  0  0  0  0
 10 12  1  0  0  0  0
 10 13  1  0  0  0  0
M  END
>  <CHROM.0>
-60.03685198,178.07500873,-61.95461211,-42.80738170,-59.42990975,-59.10295779
-67.45106408,-58.02184591,-168.89446231

>  <CHROM.1>
-173.95872853,-30.41571391,17.97893487,-16.34280123,-1.66496641,0.56891267
-1.45581360

>  <Name>
P151028160

>  <RI>
0

>  <Rbt.Current_Directory>
/home/fstefaniak/projects/zuza/docking/adenine/4TZX

>  <Rbt.Executable>
rbdock ($Id: //depot/dev/client3/rdock/2013.1/src/exe/rbdock.cxx#4 $)

>  <Rbt.Library>
libRbt.so (2013.1, Build901 2013/11/27)

>  <Rbt.Parameter_File>
/home/fstefaniak/progs/rDock//data/scripts/dock_solv.prm

>  <Rbt.Receptor>
4tzx.prm

>  <SCORE>
-52.2727

>  <SCORE.INTER>
-31.7271

>  <SCORE.INTER.CONST>
1

>  <SCORE.INTER.POLAR>
-4.2367

>  <SCORE.INTER.ROT>
1

>  <SCORE.INTER.SOLV>
12.2684

>  <SCORE.INTER.VDW>
-15.3852

>  <SCORE.INTER.norm>
-3.17271

>  <SCORE.INTRA>
0.357657

>  <SCORE.INTRA.DIHEDRAL>
0.00295925

>  <SCORE.INTRA.DIHEDRAL.0>
0.478022

>  <SCORE.INTRA.POLAR>
0.116207

>  <SCORE.INTRA.POLAR.0>
-0.116207

>  <SCORE.INTRA.REPUL>
0

>  <SCORE.INTRA.REPUL.0>
0

>  <SCORE.INTRA.SOLV>
-0.0187008

>  <SCORE.INTRA.SOLV.lig_0>
-14.5875

>  <SCORE.INTRA.VDW>
-0.0295752

>  <SCORE.INTRA.VDW.0>
-0.11601

>  <SCORE.INTRA.norm>
0.0357657

>  <SCORE.RESTR>
0

>  <SCORE.RESTR.CAVITY>
0

>  <SCORE.RESTR.norm>
0

>  <SCORE.SYSTEM>
-20.9032

>  <SCORE.SYSTEM.CONST>
0

>  <SCORE.SYSTEM.DIHEDRAL>
4.3006

>  <SCORE.SYSTEM.POLAR>
-3.06113

>  <SCORE.SYSTEM.SOLV>
0.174197

>  <SCORE.SYSTEM.VDW>
-5.22331

>  <SCORE.SYSTEM.norm>
-2.09032

>  <SCORE.heavy>
10

>  <SCORE.norm>
-5.22727

$$$$
P151032104
 OpenBabel12072022113D
libRbt.so/2013.1/901 2013/11/27
 13 13  0  0  0  0  0  0  0  0999 V2000
  -27.9699   13.6455  -16.5084 C   0  0  0  0  0  0  0  0  0  0  0  0
  -28.0936   14.9659  -15.9966 O   0  0  0  0  0  0  0  0  0  0  0  0
  -29.2144   15.6490  -16.5659 C   0  0  0  0  0  0  0  0  0  0  0  0
  -29.2207   17.1590  -16.2173 C   0  0  2  0  0  0  0  0  0  0  0  0
  -29.7072   17.4063  -14.7867 C   0  0  0  0  0  0  0  0  0  0  0  0
  -31.2015   17.7081  -14.9142 C   0  0  2  0  0  0  0  0  0  0  0  0
  -31.4697   17.8659  -16.4143 C   0  0  0  0  0  0  0  0  0  0  0  0
  -30.1240   18.0503  -16.9795 N   0  0  0  0  0  0  0  0  0  0  0  0
  -30.0814   17.8088  -18.3944 N   0  0  0  0  0  0  0  0  0  0  0  0
  -31.5084   18.9090  -14.2044 O   0  0  0  0  0  0  0  0  0  0  0  0
  -29.8841   18.6756  -18.9011 H   0  0  0  0  0  0  0  0  0  0  0  0
  -30.9779   17.4719  -18.7562 H   0  0  0  0  0  0  0  0  0  0  0  0
  -31.3067   18.7365  -13.2665 H   0  0  0  0  0  0  0  0  0  0  0  0
  1  2  1  0  0  0  0
  2  3  1  0  0  0  0
  4  5  1  0  0  0  0
  4  8  1  0  0  0  0
  4  3  1  6  0  0  0
  5  6  1  0  0  0  0
  6  7  1  0  0  0  0
  6 10  1  1  0  0  0
  7  8  1  0  0  0  0
  8  9  1  0  0  0  0
  9 11  1  0  0  0  0
  9 12  1  0  0  0  0
 10 13  1  0  0  0  0
M  END
>  <CHROM.0>
-61.53670063,-169.02027412,-65.97535437,-42.95187524,-58.48074611,-59.42292226
-67.74625844,-60.75927215,-169.19744152

>  <CHROM.1>
-169.82101243,-77.54786792,-62.83370143,-126.31094916,-29.85743744,16.91587250
-16.09911515,-0.09754422,-0.93372429,1.73770305

>  <Name>
P151032104

>  <RI>
0

>  <Rbt.Current_Directory>
/home/fstefaniak/projects/zuza/docking/adenine/4TZX

>  <Rbt.Executable>
rbdock ($Id: //depot/dev/client3/rdock/2013.1/src/exe/rbdock.cxx#4 $)

>  <Rbt.Library>
libRbt.so (2013.1, Build901 2013/11/27)

>  <Rbt.Parameter_File>
/home/fstefaniak/progs/rDock//data/scripts/dock_solv.prm

>  <Rbt.Receptor>
4tzx.prm

>  <SCORE>
-44.7088

>  <SCORE.INTER>
-24.7541

>  <SCORE.INTER.CONST>
1

>  <SCORE.INTER.POLAR>
-2.68717

>  <SCORE.INTER.ROT>
3

>  <SCORE.INTER.SOLV>
13.1254

>  <SCORE.INTER.VDW>
-17.5206

>  <SCORE.INTER.norm>
-2.47541

>  <SCORE.INTRA>
0.93993

>  <SCORE.INTRA.DIHEDRAL>
2.56411

>  <SCORE.INTRA.DIHEDRAL.0>
0.650667

>  <SCORE.INTRA.POLAR>
0

>  <SCORE.INTRA.POLAR.0>
0

>  <SCORE.INTRA.REPUL>
0

>  <SCORE.INTRA.REPUL.0>
0

>  <SCORE.INTRA.SOLV>
-0.777926

>  <SCORE.INTRA.SOLV.lig_0>
-14.7545

>  <SCORE.INTRA.VDW>
0.0468356

>  <SCORE.INTRA.VDW.0>
-0.103612

>  <SCORE.INTRA.norm>
0.093993

>  <SCORE.RESTR>
0

>  <SCORE.RESTR.CAVITY>
0

>  <SCORE.RESTR.norm>
0

>  <SCORE.SYSTEM>
-20.8947

>  <SCORE.SYSTEM.CONST>
0

>  <SCORE.SYSTEM.DIHEDRAL>
4.96697

>  <SCORE.SYSTEM.POLAR>
-3.04076

>  <SCORE.SYSTEM.SOLV>
0.14771

>  <SCORE.SYSTEM.VDW>
-5.49883

>  <SCORE.SYSTEM.norm>
-2.08947

>  <SCORE.heavy>
10

>  <SCORE.norm>
-4.47088

$$$$
P151032104
 OpenBabel12072022113D
libRbt.so/2013.1/901 2013/11/27
 13 13  0  0  0  0  0  0  0  0999 V2000
  -31.3139   18.9755  -17.9836 C   0  0  0  0  0  0  0  0  0  0  0  0
  -31.5621   18.9703  -16.5839 O   0  0  0  0  0  0  0  0  0  0  0  0
  -31.0989   17.7634  -15.9709 C   0  0  0  0  0  0  0  0  0  0  0  0
  -29.5524   17.7012  -15.8919 C   0  0  2  0  0  0  0  0  0  0  0  0
  -28.9576   16.9227  -17.0686 C   0  0  0  0  0  0  0  0  0  0  0  0
  -28.7693   15.4942  -16.5545 C   0  0  2  0  0  0  0  0  0  0  0  0
  -29.0271   15.5555  -15.0455 C   0  0  0  0  0  0  0  0  0  0  0  0
  -28.9373   16.9931  -14.7466 N   0  0  0  0  0  0  0  0  0  0  0  0
  -29.5427   17.3347  -13.4901 N   0  0  0  0  0  0  0  0  0  0  0  0
  -27.4387   15.0573  -16.8350 O   0  0  0  0  0  0  0  0  0  0  0  0
  -29.6920   18.3450  -13.4259 H   0  0  0  0  0  0  0  0  0  0  0  0
  -28.9469   17.0895  -12.6945 H   0  0  0  0  0  0  0  0  0  0  0  0
  -27.3092   15.1603  -17.7956 H   0  0  0  0  0  0  0  0  0  0  0  0
  1  2  1  0  0  0  0
  2  3  1  0  0  0  0
  4  5  1  0  0  0  0
  4  8  1  0  0  0  0
  4  3  1  1  0  0  0
  5  6  1  0  0  0  0
  6  7  1  0  0  0  0
  6 10  1  1  0  0  0
  7  8  1  0  0  0  0
  8  9  1  0  0  0  0
  9 11  1  0  0  0  0
  9 12  1  0  0  0  0
 10 13  1  0  0  0  0
M  END
>  <CHROM.0>
-61.48616871,-69.46157426,-68.84301661,-42.99875935,-58.29094041,-60.97310259
-68.16975987,-61.19445309,-168.10336554

>  <CHROM.1>
72.17010993,-95.71902699,-55.72341422,-44.00485023,-29.61480370,17.09037887
-16.01847939,-2.94054075,-0.80651870,1.53847251

>  <Name>
P151032104

>  <RI>
0

>  <Rbt.Current_Directory>
/home/fstefaniak/projects/zuza/docking/adenine/4TZX

>  <Rbt.Executable>
rbdock ($Id: //depot/dev/client3/rdock/2013.1/src/exe/rbdock.cxx#4 $)

>  <Rbt.Library>
libRbt.so (2013.1, Build901 2013/11/27)

>  <Rbt.Parameter_File>
/home/fstefaniak/progs/rDock//data/scripts/dock_solv.prm

>  <Rbt.Receptor>
4tzx.prm

>  <SCORE>
-44.3421

>  <SCORE.INTER>
-25.7643

>  <SCORE.INTER.CONST>
1

>  <SCORE.INTER.POLAR>
-5.31266

>  <SCORE.INTER.ROT>
3

>  <SCORE.INTER.SOLV>
12.4351

>  <SCORE.INTER.VDW>
-9.21238

>  <SCORE.INTER.norm>
-2.57643

>  <SCORE.INTRA>
2.48716

>  <SCORE.INTRA.DIHEDRAL>
3.90066

>  <SCORE.INTRA.DIHEDRAL.0>
0.650667

>  <SCORE.INTRA.POLAR>
0

>  <SCORE.INTRA.POLAR.0>
0

>  <SCORE.INTRA.REPUL>
0

>  <SCORE.INTRA.REPUL.0>
0

>  <SCORE.INTRA.SOLV>
-0.695304

>  <SCORE.INTRA.SOLV.lig_0>
-14.7545

>  <SCORE.INTRA.VDW>
0.884481

>  <SCORE.INTRA.VDW.0>
-0.103612

>  <SCORE.INTRA.norm>
0.248716

>  <SCORE.RESTR>
0

>  <SCORE.RESTR.CAVITY>
0

>  <SCORE.RESTR.norm>
0

>  <SCORE.SYSTEM>
-21.0649

>  <SCORE.SYSTEM.CONST>
0

>  <SCORE.SYSTEM.DIHEDRAL>
5.151

>  <SCORE.SYSTEM.POLAR>
-3.03938

>  <SCORE.SYSTEM.SOLV>
0.166558

>  <SCORE.SYSTEM.VDW>
-5.6845

>  <SCORE.SYSTEM.norm>
-2.10649

>  <SCORE.heavy>
10

>  <SCORE.norm>
-4.43421

$$$$
P151032104
 OpenBabel12072022113D
libRbt.so/2013.1/901 2013/11/27
 13 13  0  0  0  0  0  0  0  0999 V2000
  -31.2553   19.0107  -17.9668 C   0  0  0  0  0  0  0  0  0  0  0  0
  -31.5453   18.9674  -16.5758 O   0  0  0  0  0  0  0  0  0  0  0  0
  -31.0824   17.7525  -15.9785 C   0  0  0  0  0  0  0  0  0  0  0  0
  -29.5363   17.6929  -15.8918 C   0  0  2  0  0  0  0  0  0  0  0  0
  -28.9339   16.9229  -17.0703 C   0  0  0  0  0  0  0  0  0  0  0  0
  -28.7454   15.4915  -16.5643 C   0  0  2  0  0  0  0  0  0  0  0  0
  -29.0110   15.5428  -15.0563 C   0  0  0  0  0  0  0  0  0  0  0  0
  -28.9256   16.9787  -14.7479 N   0  0  0  0  0  0  0  0  0  0  0  0
  -29.5382   17.3112  -13.4924 N   0  0  0  0  0  0  0  0  0  0  0  0
  -27.4125   15.0589  -16.8407 O   0  0  0  0  0  0  0  0  0  0  0  0
  -29.6739   18.3225  -13.4153 H   0  0  0  0  0  0  0  0  0  0  0  0
  -28.9534   17.0465  -12.6949 H   0  0  0  0  0  0  0  0  0  0  0  0
  -27.2781   15.1690  -17.7998 H   0  0  0  0  0  0  0  0  0  0  0  0
  1  2  1  0  0  0  0
  2  3  1  0  0  0  0
  4  5  1  0  0  0  0
  4  8  1  0  0  0  0
  4  3  1  1  0  0  0
  5  6  1  0  0  0  0
  6  7  1  0  0  0  0
  6 10  1  1  0  0  0
  7  8  1  0  0  0  0
  8  9  1  0  0  0  0
  9 11  1  0  0  0  0
  9 12  1  0  0  0  0
 10 13  1  0  0  0  0
M  END
>  <CHROM.0>
-59.07827061,-68.44413203,-60.92890714,-41.88509336,-59.31918940,-60.97066044
-62.90322309,-173.40984915,-168.68280944

>  <CHROM.1>
70.50290916,-96.22151002,-55.67692926,-45.05396013,-29.59326297,17.08662337
-16.01958110,-2.93204033,-0.80836663,1.55830987

>  <Name>
P151032104

>  <RI>
0

>  <Rbt.Current_Directory>
/home/fstefaniak/projects/zuza/docking/adenine/4TZX

>  <Rbt.Executable>
rbdock ($Id: //depot/dev/client3/rdock/2013.1/src/exe/rbdock.cxx#4 $)

>  <Rbt.Library>
libRbt.so (2013.1, Build901 2013/11/27)

>  <Rbt.Parameter_File>
/home/fstefaniak/progs/rDock//data/scripts/dock_solv.prm

>  <Rbt.Receptor>
4tzx.prm

>  <SCORE>
-44.153

>  <SCORE.INTER>
-25.8176

>  <SCORE.INTER.CONST>
1

>  <SCORE.INTER.POLAR>
-5.33425

>  <SCORE.INTER.ROT>
3

>  <SCORE.INTER.SOLV>
12.4552

>  <SCORE.INTER.VDW>
-9.18265

>  <SCORE.INTER.norm>
-2.58176

>  <SCORE.INTRA>
2.52153

>  <SCORE.INTRA.DIHEDRAL>
3.75911

>  <SCORE.INTRA.DIHEDRAL.0>
0.650667

>  <SCORE.INTRA.POLAR>
0

>  <SCORE.INTRA.POLAR.0>
0

>  <SCORE.INTRA.REPUL>
0

>  <SCORE.INTRA.REPUL.0>
0

>  <SCORE.INTRA.SOLV>
-0.69217

>  <SCORE.INTRA.SOLV.lig_0>
-14.7545

>  <SCORE.INTRA.VDW>
0.988062

>  <SCORE.INTRA.VDW.0>
-0.103612

>  <SCORE.INTRA.norm>
0.252153

>  <SCORE.RESTR>
0

>  <SCORE.RESTR.CAVITY>
0

>  <SCORE.RESTR.norm>
0

>  <SCORE.SYSTEM>
-20.8569

>  <SCORE.SYSTEM.CONST>
0

>  <SCORE.SYSTEM.DIHEDRAL>
4.73402

>  <SCORE.SYSTEM.POLAR>
-3.07374

>  <SCORE.SYSTEM.SOLV>
0.0691841

>  <SCORE.SYSTEM.VDW>
-5.25985

>  <SCORE.SYSTEM.norm>
-2.08569

>  <SCORE.heavy>
10

>  <SCORE.norm>
-4.4153

$$$$
P151032491
 OpenBabel12072022113D
libRbt.so/2013.1/901 2013/11/27
 14 14  0  0  0  0  0  0  0  0999 V2000
  -26.1098   19.6119  -11.0524 H   0  0  0  0  0  0  0  0  0  0  0  0
  -27.0515   19.2162  -11.1085 N   0  0  0  0  0  0  0  0  0  0  0  0
  -27.2662   18.8636  -12.3301 C   0  0  0  0  0  0  0  0  0  0  0  0
  -26.3323   18.9970  -13.2960 N   0  0  0  0  0  0  0  0  0  0  0  0
  -28.4616   18.3521  -12.7106 N   0  0  0  0  0  0  0  0  0  0  0  0
  -28.9137   17.7573  -13.8458 C   0  0  0  0  0  0  0  0  0  0  0  0
  -28.1546   17.4184  -14.8618 N   0  0  0  0  0  0  0  0  0  0  0  0
  -29.0901   16.7750  -15.8218 C   0  0  0  0  0  0  0  0  0  0  0  0
  -30.5018   17.1082  -15.3408 C   0  0  0  0  0  0  0  0  0  0  0  0
  -30.2573   17.4942  -13.9608 N   0  0  0  0  0  0  0  0  0  0  0  0
  -31.3046   18.2452  -13.2983 C   0  0  0  0  0  0  0  0  0  0  0  0
  -25.4164   19.2966  -12.9951 H   0  0  0  0  0  0  0  0  0  0  0  0
  -26.2904   18.1719  -13.9020 H   0  0  0  0  0  0  0  0  0  0  0  0
  -29.0817   18.2883  -11.9193 H   0  0  0  0  0  0  0  0  0  0  0  0
  1  2  1  0  0  0  0
  2  3  2  0  0  0  0
  3  4  1  0  0  0  0
  3  5  1  0  0  0  0
  4 12  1  0  0  0  0
  4 13  1  0  0  0  0
  5  6  1  0  0  0  0
  5 14  1  0  0  0  0
  6  7  2  0  0  0  0
  6 10  1  0  0  0  0
  7  8  1  0  0  0  0
  8  9  1  0  0  0  0
  9 10  1  0  0  0  0
 10 11  1  0  0  0  0
M  END
>  <CHROM.0>
-61.59143880,-62.06072202,-65.84290304,-43.35919547,-58.21369265,-171.25076074
-64.35936727,-174.93621400,-168.93387619

>  <CHROM.1>
6.36781168,7.33447610,-28.71322264,18.03929321,-13.63749542,0.76899560,0.11119270
1.11625122

>  <Name>
P151032491

>  <RI>
0

>  <Rbt.Current_Directory>
/home/fstefaniak/projects/zuza/docking/adenine/4TZX

>  <Rbt.Executable>
rbdock ($Id: //depot/dev/client3/rdock/2013.1/src/exe/rbdock.cxx#4 $)

>  <Rbt.Library>
libRbt.so (2013.1, Build901 2013/11/27)

>  <Rbt.Parameter_File>
/home/fstefaniak/progs/rDock//data/scripts/dock_solv.prm

>  <Rbt.Receptor>
4tzx.prm

>  <SCORE>
-53.217

>  <SCORE.INTER>
-34.2746

>  <SCORE.INTER.CONST>
1

>  <SCORE.INTER.POLAR>
-4.88455

>  <SCORE.INTER.ROT>
2

>  <SCORE.INTER.SOLV>
14.6271

>  <SCORE.INTER.VDW>
-16.3769

>  <SCORE.INTER.norm>
-3.42746

>  <SCORE.INTRA>
1.94234

>  <SCORE.INTRA.DIHEDRAL>
1.72604

>  <SCORE.INTRA.DIHEDRAL.0>
4.60484

>  <SCORE.INTRA.POLAR>
0.384069

>  <SCORE.INTRA.POLAR.0>
-0.743558

>  <SCORE.INTRA.REPUL>
0

>  <SCORE.INTRA.REPUL.0>
0

>  <SCORE.INTRA.SOLV>
-0.050326

>  <SCORE.INTRA.SOLV.lig_0>
-16.7253

>  <SCORE.INTRA.VDW>
-0.201346

>  <SCORE.INTRA.VDW.0>
-0.267814

>  <SCORE.INTRA.norm>
0.194234

>  <SCORE.RESTR>
0

>  <SCORE.RESTR.CAVITY>
0

>  <SCORE.RESTR.norm>
0

>  <SCORE.SYSTEM>
-20.8847

>  <SCORE.SYSTEM.CONST>
0

>  <SCORE.SYSTEM.DIHEDRAL>
4.65674

>  <SCORE.SYSTEM.POLAR>
-3.04075

>  <SCORE.SYSTEM.SOLV>
-0.0592366

>  <SCORE.SYSTEM.VDW>
-5.31979

>  <SCORE.SYSTEM.norm>
-2.08847

>  <SCORE.heavy>
10

>  <SCORE.norm>
-5.3217

$$$$
P151032491
 OpenBabel12072022113D
libRbt.so/2013.1/901 2013/11/27
 14 14  0  0  0  0  0  0  0  0999 V2000
  -26.0918   19.5560  -11.0234 H   0  0  0  0  0  0  0  0  0  0  0  0
  -27.0368   19.1674  -11.0713 N   0  0  0  0  0  0  0  0  0  0  0  0
  -27.2758   18.8438  -12.2965 C   0  0  0  0  0  0  0  0  0  0  0  0
  -26.3585   18.9935  -13.2759 N   0  0  0  0  0  0  0  0  0  0  0  0
  -28.4810   18.3482  -12.6667 N   0  0  0  0  0  0  0  0  0  0  0  0
  -28.9573   17.7820  -13.8066 C   0  0  0  0  0  0  0  0  0  0  0  0
  -28.2192   17.4647  -14.8449 N   0  0  0  0  0  0  0  0  0  0  0  0
  -29.1756   16.8474  -15.8015 C   0  0  0  0  0  0  0  0  0  0  0  0
  -30.5764   17.1738  -15.2854 C   0  0  0  0  0  0  0  0  0  0  0  0
  -30.3039   17.5262  -13.9017 N   0  0  0  0  0  0  0  0  0  0  0  0
  -31.3353   18.2648  -13.2014 C   0  0  0  0  0  0  0  0  0  0  0  0
  -25.4210   19.2233  -12.9802 H   0  0  0  0  0  0  0  0  0  0  0  0
  -26.3756   18.2106  -13.9367 H   0  0  0  0  0  0  0  0  0  0  0  0
  -29.0871   18.2702  -11.8659 H   0  0  0  0  0  0  0  0  0  0  0  0
  1  2  1  0  0  0  0
  2  3  2  0  0  0  0
  3  4  1  0  0  0  0
  3  5  1  0  0  0  0
  4 12  1  0  0  0  0
  4 13  1  0  0  0  0
  5  6  1  0  0  0  0
  5 14  1  0  0  0  0
  6  7  2  0  0  0  0
  6 10  1  0  0  0  0
  7  8  1  0  0  0  0
  8  9  1  0  0  0  0
  9 10  1  0  0  0  0
 10 11  1  0  0  0  0
M  END
>  <CHROM.0>
-57.89647899,-58.28457057,-63.83888474,-41.35889328,-175.18796490,-171.54373586
-61.81680134,-58.43840764,-168.90501366

>  <CHROM.1>
10.13503210,7.15690039,-28.75156305,18.05694745,-13.59542726,0.74966295,0.11509698
1.14239988

>  <Name>
P151032491

>  <RI>
0

>  <Rbt.Current_Directory>
/home/fstefaniak/projects/zuza/docking/adenine/4TZX

>  <Rbt.Executable>
rbdock ($Id: //depot/dev/client3/rdock/2013.1/src/exe/rbdock.cxx#4 $)

>  <Rbt.Library>
libRbt.so (2013.1, Build901 2013/11/27)

>  <Rbt.Parameter_File>
/home/fstefaniak/progs/rDock//data/scripts/dock_solv.prm

>  <Rbt.Receptor>
4tzx.prm

>  <SCORE>
-53.0973

>  <SCORE.INTER>
-33.8705

>  <SCORE.INTER.CONST>
1

>  <SCORE.INTER.POLAR>
-4.89624

>  <SCORE.INTER.ROT>
2

>  <SCORE.INTER.SOLV>
14.6798

>  <SCORE.INTER.VDW>
-16.0861

>  <SCORE.INTER.norm>
-3.38705

>  <SCORE.INTRA>
1.56987

>  <SCORE.INTRA.DIHEDRAL>
1.59847

>  <SCORE.INTRA.DIHEDRAL.0>
4.60484

>  <SCORE.INTRA.POLAR>
0.286309

>  <SCORE.INTRA.POLAR.0>
-0.743558

>  <SCORE.INTRA.REPUL>
0

>  <SCORE.INTRA.REPUL.0>
0

>  <SCORE.INTRA.SOLV>
-0.0437092

>  <SCORE.INTRA.SOLV.lig_0>
-16.7253

>  <SCORE.INTRA.VDW>
-0.180959

>  <SCORE.INTRA.VDW.0>
-0.267814

>  <SCORE.INTRA.norm>
0.156987

>  <SCORE.RESTR>
0

>  <SCORE.RESTR.CAVITY>
0

>  <SCORE.RESTR.norm>
0

>  <SCORE.SYSTEM>
-20.7966

>  <SCORE.SYSTEM.CONST>
0

>  <SCORE.SYSTEM.DIHEDRAL>
4.75901

>  <SCORE.SYSTEM.POLAR>
-3.08984

>  <SCORE.SYSTEM.SOLV>
-0.0881526

>  <SCORE.SYSTEM.VDW>
-5.12188

>  <SCORE.SYSTEM.norm>
-2.07966

>  <SCORE.heavy>
10

>  <SCORE.norm>
-5.30973

$$$$
P151032491
 OpenBabel12072022113D
libRbt.so/2013.1/901 2013/11/27
 14 14  0  0  0  0  0  0  0  0999 V2000
  -26.0874   19.4235  -11.0118 H   0  0  0  0  0  0  0  0  0  0  0  0
  -27.0580   19.1063  -11.0733 N   0  0  0  0  0  0  0  0  0  0  0  0
  -27.2828   18.7365  -12.2881 C   0  0  0  0  0  0  0  0  0  0  0  0
  -26.3262   18.7627  -13.2406 N   0  0  0  0  0  0  0  0  0  0  0  0
  -28.5109   18.3153  -12.6750 N   0  0  0  0  0  0  0  0  0  0  0  0
  -28.9938   17.7267  -13.8007 C   0  0  0  0  0  0  0  0  0  0  0  0
  -28.2567   17.3553  -14.8216 N   0  0  0  0  0  0  0  0  0  0  0  0
  -29.2225   16.7352  -15.7668 C   0  0  0  0  0  0  0  0  0  0  0  0
  -30.6175   17.1179  -15.2742 C   0  0  0  0  0  0  0  0  0  0  0  0
  -30.3464   17.5065  -13.9000 N   0  0  0  0  0  0  0  0  0  0  0  0
  -31.3618   18.2963  -13.2330 C   0  0  0  0  0  0  0  0  0  0  0  0
  -26.6196   19.0520  -14.1622 H   0  0  0  0  0  0  0  0  0  0  0  0
  -25.4888   19.2621  -12.9258 H   0  0  0  0  0  0  0  0  0  0  0  0
  -29.1462   18.3270  -11.8934 H   0  0  0  0  0  0  0  0  0  0  0  0
  1  2  1  0  0  0  0
  2  3  2  0  0  0  0
  3  4  1  0  0  0  0
  3  5  1  0  0  0  0
  4 12  1  0  0  0  0
  4 13  1  0  0  0  0
  5  6  1  0  0  0  0
  5 14  1  0  0  0  0
  6  7  2  0  0  0  0
  6 10  1  0  0  0  0
  7  8  1  0  0  0  0
  8  9  1  0  0  0  0
  9 10  1  0  0  0  0
 10 11  1  0  0  0  0
M  END
>  <CHROM.0>
-52.03436608,-175.51993495,-51.41401636,-42.87479379,-58.69762324,-171.71302297
-67.03298178,-175.69243127,-168.77416160

>  <CHROM.1>
-141.32264076,3.80640501,-28.77925361,17.99047183,-13.58937295,0.74315786
0.07882656,1.11918713

>  <Name>
P151032491

>  <RI>
0

>  <Rbt.Current_Directory>
/home/fstefaniak/projects/zuza/docking/adenine/4TZX

>  <Rbt.Executable>
rbdock ($Id: //depot/dev/client3/rdock/2013.1/src/exe/rbdock.cxx#4 $)

>  <Rbt.Library>
libRbt.so (2013.1, Build901 2013/11/27)

>  <Rbt.Parameter_File>
/home/fstefaniak/progs/rDock//data/scripts/dock_solv.prm

>  <Rbt.Receptor>
4tzx.prm

>  <SCORE>
-52.8777

>  <SCORE.INTER>
-34.6445

>  <SCORE.INTER.CONST>
1

>  <SCORE.INTER.POLAR>
-4.97877

>  <SCORE.INTER.ROT>
2

>  <SCORE.INTER.SOLV>
14.7117

>  <SCORE.INTER.VDW>
-16.3377

>  <SCORE.INTER.norm>
-3.46445

>  <SCORE.INTRA>
2.06842

>  <SCORE.INTRA.DIHEDRAL>
-0.543523

>  <SCORE.INTRA.DIHEDRAL.0>
4.60484

>  <SCORE.INTRA.POLAR>
0.720403

>  <SCORE.INTRA.POLAR.0>
-0.743558

>  <SCORE.INTRA.REPUL>
0

>  <SCORE.INTRA.REPUL.0>
0

>  <SCORE.INTRA.SOLV>
-0.066408

>  <SCORE.INTRA.SOLV.lig_0>
-16.7253

>  <SCORE.INTRA.VDW>
-0.0759842

>  <SCORE.INTRA.VDW.0>
-0.267814

>  <SCORE.INTRA.norm>
0.206842

>  <SCORE.RESTR>
0

>  <SCORE.RESTR.CAVITY>
0

>  <SCORE.RESTR.norm>
0

>  <SCORE.SYSTEM>
-20.3016

>  <SCORE.SYSTEM.CONST>
0

>  <SCORE.SYSTEM.DIHEDRAL>
5.33144

>  <SCORE.SYSTEM.POLAR>
-3.17847

>  <SCORE.SYSTEM.SOLV>
-0.0609377

>  <SCORE.SYSTEM.VDW>
-4.69631

>  <SCORE.SYSTEM.norm>
-2.03016

>  <SCORE.heavy>
10

>  <SCORE.norm>
-5.28777

$$$$
P151032568
 OpenBabel12072022113D
libRbt.so/2013.1/901 2013/11/27
 13 13  0  0  0  0  0  0  0  0999 V2000
  -31.7900   17.8854  -13.3945 C   0  0  0  0  0  0  0  0  0  0  0  0
  -30.6464   18.0483  -14.2198 O   0  0  0  0  0  0  0  0  0  0  0  0
  -30.8593   17.5792  -15.5484 C   0  0  2  0  0  0  0  0  0  0  0  0
  -29.7497   18.1400  -16.5162 C   0  0  2  0  0  0  0  0  0  0  0  0
  -30.5251   18.8047  -17.5536 N   0  0  0  0  0  0  0  0  0  0  0  0
  -31.8575   18.6281  -17.3623 C   0  0  0  0  0  0  0  0  0  0  0  0
  -32.7806   18.7917  -18.2296 N   0  0  0  0  0  0  0  0  0  0  0  0
  -32.0677   18.1399  -16.1153 N   0  0  0  0  0  0  0  0  0  0  0  0
  -28.9813   17.1249  -17.1545 O   0  0  0  0  0  0  0  0  0  0  0  0
  -28.3029   16.3053  -16.2125 C   0  0  0  0  0  0  0  0  0  0  0  0
  -30.1754   18.6456  -18.4869 H   0  0  0  0  0  0  0  0  0  0  0  0
  -32.3606   19.1638  -19.0845 H   0  0  0  0  0  0  0  0  0  0  0  0
  -32.9417   17.6495  -15.9997 H   0  0  0  0  0  0  0  0  0  0  0  0
  1  2  1  0  0  0  0
  3  8  1  0  0  0  0
  3  2  1  1  0  0  0
  3  4  1  0  0  0  0
  4  5  1  0  0  0  0
  4  9  1  6  0  0  0
  5  6  1  0  0  0  0
  5 11  1  0  0  0  0
  6  7  2  0  0  0  0
  6  8  1  0  0  0  0
  7 12  1  0  0  0  0
  8 13  1  0  0  0  0
  9 10  1  0  0  0  0
M  END
>  <CHROM.0>
-60.38713893,177.52441898,-65.42672180,-42.97293270,-58.48824567,-59.64687851
-66.21442360,-57.76449859,-168.84902581

>  <CHROM.1>
163.85694733,-59.97247521,-30.73341696,17.92594270,-16.21657284,0.75798804
-0.42261367,1.72832257

>  <Name>
P151032568

>  <RI>
0

>  <Rbt.Current_Directory>
/home/fstefaniak/projects/zuza/docking/adenine/4TZX

>  <Rbt.Executable>
rbdock ($Id: //depot/dev/client3/rdock/2013.1/src/exe/rbdock.cxx#4 $)

>  <Rbt.Library>
libRbt.so (2013.1, Build901 2013/11/27)

>  <Rbt.Parameter_File>
/home/fstefaniak/progs/rDock//data/scripts/dock_solv.prm

>  <Rbt.Receptor>
4tzx.prm

>  <SCORE>
-51.1143

>  <SCORE.INTER>
-31.8521

>  <SCORE.INTER.CONST>
1

>  <SCORE.INTER.POLAR>
-4.73549

>  <SCORE.INTER.ROT>
2

>  <SCORE.INTER.SOLV>
12.2384

>  <SCORE.INTER.VDW>
-14.4625

>  <SCORE.INTER.norm>
-3.18521

>  <SCORE.INTRA>
1.68964

>  <SCORE.INTRA.DIHEDRAL>
-0.485182

>  <SCORE.INTRA.DIHEDRAL.0>
1.96904

>  <SCORE.INTRA.POLAR>
0

>  <SCORE.INTRA.POLAR.0>
0

>  <SCORE.INTRA.REPUL>
0

>  <SCORE.INTRA.REPUL.0>
0

>  <SCORE.INTRA.SOLV>
0.123217

>  <SCORE.INTRA.SOLV.lig_0>
-13.5212

>  <SCORE.INTRA.VDW>
1.87062

>  <SCORE.INTRA.VDW.0>
0.024909

>  <SCORE.INTRA.norm>
0.168964

>  <SCORE.RESTR>
0

>  <SCORE.RESTR.CAVITY>
0

>  <SCORE.RESTR.norm>
0

>  <SCORE.SYSTEM>
-20.9519

>  <SCORE.SYSTEM.CONST>
0

>  <SCORE.SYSTEM.DIHEDRAL>
4.34501

>  <SCORE.SYSTEM.POLAR>
-3.05514

>  <SCORE.SYSTEM.SOLV>
0.172725

>  <SCORE.SYSTEM.VDW>
-5.29003

>  <SCORE.SYSTEM.norm>
-2.09519

>  <SCORE.heavy>
10

>  <SCORE.norm>
-5.11143

$$$$
P151032568
 OpenBabel12072022113D
libRbt.so/2013.1/901 2013/11/27
 13 13  0  0  0  0  0  0  0  0999 V2000
  -31.7898   17.8550  -13.4001 C   0  0  0  0  0  0  0  0  0  0  0  0
  -30.6612   18.0655  -14.2351 O   0  0  0  0  0  0  0  0  0  0  0  0
  -30.8697   17.5979  -15.5650 C   0  0  2  0  0  0  0  0  0  0  0  0
  -29.7675   18.1744  -16.5319 C   0  0  2  0  0  0  0  0  0  0  0  0
  -30.5513   18.8332  -17.5668 N   0  0  0  0  0  0  0  0  0  0  0  0
  -31.8815   18.6406  -17.3749 C   0  0  0  0  0  0  0  0  0  0  0  0
  -32.8072   18.7961  -18.2410 N   0  0  0  0  0  0  0  0  0  0  0  0
  -32.0850   18.1463  -16.1293 N   0  0  0  0  0  0  0  0  0  0  0  0
  -28.9879   17.1703  -17.1739 O   0  0  0  0  0  0  0  0  0  0  0  0
  -28.3024   16.3532  -16.2347 C   0  0  0  0  0  0  0  0  0  0  0  0
  -30.2007   18.6809  -18.5007 H   0  0  0  0  0  0  0  0  0  0  0  0
  -32.3922   19.1756  -19.0951 H   0  0  0  0  0  0  0  0  0  0  0  0
  -32.9531   17.6454  -16.0145 H   0  0  0  0  0  0  0  0  0  0  0  0
  1  2  1  0  0  0  0
  3  8  1  0  0  0  0
  3  2  1  1  0  0  0
  3  4  1  0  0  0  0
  4  5  1  0  0  0  0
  4  9  1  6  0  0  0
  5  6  1  0  0  0  0
  5 11  1  0  0  0  0
  6  7  2  0  0  0  0
  6  8  1  0  0  0  0
  7 12  1  0  0  0  0
  8 13  1  0  0  0  0
  9 10  1  0  0  0  0
M  END
>  <CHROM.0>
-57.63574674,177.71341274,-64.81848087,-43.32735303,-55.25058196,-64.63467310
-65.67199411,-57.09620766,-168.64354997

>  <CHROM.1>
165.40725131,-59.79861462,-30.74746472,17.94454369,-16.23118871,0.78873119
-0.41038642,1.73378496

>  <Name>
P151032568

>  <RI>
0

>  <Rbt.Current_Directory>
/home/fstefaniak/projects/zuza/docking/adenine/4TZX

>  <Rbt.Executable>
rbdock ($Id: //depot/dev/client3/rdock/2013.1/src/exe/rbdock.cxx#4 $)

>  <Rbt.Library>
libRbt.so (2013.1, Build901 2013/11/27)

>  <Rbt.Parameter_File>
/home/fstefaniak/progs/rDock//data/scripts/dock_solv.prm

>  <Rbt.Receptor>
4tzx.prm

>  <SCORE>
-51.0159

>  <SCORE.INTER>
-31.6031

>  <SCORE.INTER.CONST>
1

>  <SCORE.INTER.POLAR>
-4.81645

>  <SCORE.INTER.ROT>
2

>  <SCORE.INTER.SOLV>
12.2922

>  <SCORE.INTER.VDW>
-14.0446

>  <SCORE.INTER.norm>
-3.16031

>  <SCORE.INTRA>
1.49584

>  <SCORE.INTRA.DIHEDRAL>
-0.685277

>  <SCORE.INTRA.DIHEDRAL.0>
1.96904

>  <SCORE.INTRA.POLAR>
0

>  <SCORE.INTRA.POLAR.0>
0

>  <SCORE.INTRA.REPUL>
0

>  <SCORE.INTRA.REPUL.0>
0

>  <SCORE.INTRA.SOLV>
0.117364

>  <SCORE.INTRA.SOLV.lig_0>
-13.5212

>  <SCORE.INTRA.VDW>
1.77979

>  <SCORE.INTRA.VDW.0>
0.024909

>  <SCORE.INTRA.norm>
0.149584

>  <SCORE.RESTR>
0

>  <SCORE.RESTR.CAVITY>
0

>  <SCORE.RESTR.norm>
0

>  <SCORE.SYSTEM>
-20.9087

>  <SCORE.SYSTEM.CONST>
0

>  <SCORE.SYSTEM.DIHEDRAL>
4.48198

>  <SCORE.SYSTEM.POLAR>
-3.07707

>  <SCORE.SYSTEM.SOLV>
0.173372

>  <SCORE.SYSTEM.VDW>
-5.23402

>  <SCORE.SYSTEM.norm>
-2.09087

>  <SCORE.heavy>
10

>  <SCORE.norm>
-5.10159

$$$$
P151032568
 OpenBabel12072022113D
libRbt.so/2013.1/901 2013/11/27
 13 13  0  0  0  0  0  0  0  0999 V2000
  -31.8174   17.8783  -13.3961 C   0  0  0  0  0  0  0  0  0  0  0  0
  -30.6625   18.0157  -14.2101 O   0  0  0  0  0  0  0  0  0  0  0  0
  -30.8736   17.5538  -15.5416 C   0  0  2  0  0  0  0  0  0  0  0  0
  -29.7584   18.1138  -16.5033 C   0  0  2  0  0  0  0  0  0  0  0  0
  -30.5274   18.7870  -17.5400 N   0  0  0  0  0  0  0  0  0  0  0  0
  -31.8613   18.6158  -17.3535 C   0  0  0  0  0  0  0  0  0  0  0  0
  -32.7810   18.7879  -18.2228 N   0  0  0  0  0  0  0  0  0  0  0  0
  -32.0776   18.1229  -16.1095 N   0  0  0  0  0  0  0  0  0  0  0  0
  -28.9929   17.0981  -17.1441 O   0  0  0  0  0  0  0  0  0  0  0  0
  -28.2608   16.3189  -16.2079 C   0  0  0  0  0  0  0  0  0  0  0  0
  -30.1758   18.6306  -18.4729 H   0  0  0  0  0  0  0  0  0  0  0  0
  -32.3567   19.1619  -19.0747 H   0  0  0  0  0  0  0  0  0  0  0  0
  -32.9542   17.6360  -15.9988 H   0  0  0  0  0  0  0  0  0  0  0  0
  1  2  1  0  0  0  0
  3  8  1  0  0  0  0
  3  2  1  1  0  0  0
  3  4  1  0  0  0  0
  4  5  1  0  0  0  0
  4  9  1  6  0  0  0
  5  6  1  0  0  0  0
  5 11  1  0  0  0  0
  6  7  2  0  0  0  0
  6  8  1  0  0  0  0
  7 12  1  0  0  0  0
  8 13  1  0  0  0  0
  9 10  1  0  0  0  0
M  END
>  <CHROM.0>
-58.13288663,179.20561752,-69.81316921,-42.27957502,-172.08926517,-61.48709499
-164.19668826,-174.51203213,-168.64110285

>  <CHROM.1>
162.71228391,-63.32701611,-30.73859617,17.91048530,-16.20883112,0.68645167
-0.41908998,1.73123713

>  <Name>
P151032568

>  <RI>
0

>  <Rbt.Current_Directory>
/home/fstefaniak/projects/zuza/docking/adenine/4TZX

>  <Rbt.Executable>
rbdock ($Id: //depot/dev/client3/rdock/2013.1/src/exe/rbdock.cxx#4 $)

>  <Rbt.Library>
libRbt.so (2013.1, Build901 2013/11/27)

>  <Rbt.Parameter_File>
/home/fstefaniak/progs/rDock//data/scripts/dock_solv.prm

>  <Rbt.Receptor>
4tzx.prm

>  <SCORE>
-50.3616

>  <SCORE.INTER>
-31.7043

>  <SCORE.INTER.CONST>
1

>  <SCORE.INTER.POLAR>
-4.6911

>  <SCORE.INTER.ROT>
2

>  <SCORE.INTER.SOLV>
12.2214

>  <SCORE.INTER.VDW>
-14.5063

>  <SCORE.INTER.norm>
-3.17043

>  <SCORE.INTRA>
1.64093

>  <SCORE.INTRA.DIHEDRAL>
-0.275507

>  <SCORE.INTRA.DIHEDRAL.0>
1.96904

>  <SCORE.INTRA.POLAR>
0

>  <SCORE.INTRA.POLAR.0>
0

>  <SCORE.INTRA.REPUL>
0

>  <SCORE.INTRA.REPUL.0>
0

>  <SCORE.INTRA.SOLV>
0.118501

>  <SCORE.INTRA.SOLV.lig_0>
-13.5212

>  <SCORE.INTRA.VDW>
1.71943

>  <SCORE.INTRA.VDW.0>
0.024909

>  <SCORE.INTRA.norm>
0.164093

>  <SCORE.RESTR>
0

>  <SCORE.RESTR.CAVITY>
0

>  <SCORE.RESTR.norm>
0

>  <SCORE.SYSTEM>
-20.2983

>  <SCORE.SYSTEM.CONST>
0

>  <SCORE.SYSTEM.DIHEDRAL>
6.04389

>  <SCORE.SYSTEM.POLAR>
-3.06146

>  <SCORE.SYSTEM.SOLV>
-0.173084

>  <SCORE.SYSTEM.VDW>
-5.28426

>  <SCORE.SYSTEM.norm>
-2.02983

>  <SCORE.heavy>
10

>  <SCORE.norm>
-5.03616

$$$$
P151032918
 OpenBabel12072022113D
libRbt.so/2013.1/901 2013/11/27
 16 16  0  0  0  0  0  0  0  0999 V2000
  -27.1622   10.7916  -17.9509 C   0  0  0  0  0  0  0  0  0  0  0  0
  -27.0600   11.6740  -16.7141 C   0  0  1  0  0  0  0  0  0  0  0  0
  -25.7557   11.5442  -15.8944 C   0  0  2  0  0  0  0  0  0  0  0  0
  -25.6674   12.8909  -15.1426 C   0  0  1  0  0  0  0  0  0  0  0  0
  -26.0561   13.8717  -16.2477 C   0  0  2  0  0  0  0  0  0  0  0  0
  -27.2462   13.1918  -16.9524 C   0  0  1  0  0  0  0  0  0  0  0  0
  -27.2240   13.5489  -18.3291 O   0  0  0  0  0  0  0  0  0  0  0  0
  -24.9610   13.9568  -17.1829 O   0  0  0  0  0  0  0  0  0  0  0  0
  -26.5943   12.9108  -14.0685 O   0  0  0  0  0  0  0  0  0  0  0  0
  -24.5573   11.3851  -16.7720 N   0  3  0  0  0  0  0  0  0  0  0  0
  -23.6975   11.5215  -16.1984 H   0  0  0  0  0  0  0  0  0  0  0  0
  -24.4906   10.4357  -17.1585 H   0  0  0  0  0  0  0  0  0  0  0  0
  -24.5268   12.0477  -17.5545 H   0  0  0  0  0  0  0  0  0  0  0  0
  -27.3615   14.5150  -18.3908 H   0  0  0  0  0  0  0  0  0  0  0  0
  -24.2287   14.3517  -16.6513 H   0  0  0  0  0  0  0  0  0  0  0  0
  -26.2772   12.3038  -13.3708 H   0  0  0  0  0  0  0  0  0  0  0  0
  2  1  1  6  0  0  0
  2  3  1  0  0  0  0
  3 10  1  6  0  0  0
  3  4  1  0  0  0  0
  4  9  1  1  0  0  0
  4  5  1  0  0  0  0
  5  8  1  6  0  0  0
  5  6  1  0  0  0  0
  6  2  1  0  0  0  0
  6  7  1  6  0  0  0
  7 14  1  0  0  0  0
  8 15  1  0  0  0  0
  9 16  1  0  0  0  0
 10 11  1  0  0  0  0
 10 12  1  0  0  0  0
 10 13  1  0  0  0  0
M  CHG  1  10   1
M  END
>  <CHROM.0>
-64.33913747,-177.95074528,-62.55888512,-42.95408632,-61.22179695,-63.47145516
-66.65928409,59.03229974,-169.73120659

>  <CHROM.1>
167.12701608,71.31724444,-64.57386995,179.12062822,-26.18569602,12.59646320
-16.54776085,-2.90576863,-1.22722072,0.09110360

>  <Name>
P151032918

>  <RI>
0

>  <Rbt.Current_Directory>
/home/fstefaniak/projects/zuza/docking/adenine/4TZX

>  <Rbt.Executable>
rbdock ($Id: //depot/dev/client3/rdock/2013.1/src/exe/rbdock.cxx#4 $)

>  <Rbt.Library>
libRbt.so (2013.1, Build901 2013/11/27)

>  <Rbt.Parameter_File>
/home/fstefaniak/progs/rDock//data/scripts/dock_solv.prm

>  <Rbt.Receptor>
4tzx.prm

>  <SCORE>
-41.6749

>  <SCORE.INTER>
-23.2962

>  <SCORE.INTER.CONST>
1

>  <SCORE.INTER.POLAR>
-4.12607

>  <SCORE.INTER.ROT>
0

>  <SCORE.INTER.SOLV>
10.0885

>  <SCORE.INTER.VDW>
-8.74006

>  <SCORE.INTER.norm>
-2.32962

>  <SCORE.INTRA>
0.360716

>  <SCORE.INTRA.DIHEDRAL>
-2.27875

>  <SCORE.INTRA.DIHEDRAL.0>
3.92058

>  <SCORE.INTRA.POLAR>
0.599929

>  <SCORE.INTRA.POLAR.0>
-0.96714

>  <SCORE.INTRA.REPUL>
0

>  <SCORE.INTRA.REPUL.0>
0

>  <SCORE.INTRA.SOLV>
-0.0647372

>  <SCORE.INTRA.SOLV.lig_0>
-31.5703

>  <SCORE.INTRA.VDW>
-0.507296

>  <SCORE.INTRA.VDW.0>
-0.300275

>  <SCORE.INTRA.norm>
0.0360716

>  <SCORE.RESTR>
1.26129

>  <SCORE.RESTR.CAVITY>
1.26129

>  <SCORE.RESTR.norm>
0.126129

>  <SCORE.SYSTEM>
-20.0007

>  <SCORE.SYSTEM.CONST>
0

>  <SCORE.SYSTEM.DIHEDRAL>
4.29674

>  <SCORE.SYSTEM.POLAR>
-3.01195

>  <SCORE.SYSTEM.SOLV>
-0.0222717

>  <SCORE.SYSTEM.VDW>
-4.7188

>  <SCORE.SYSTEM.norm>
-2.00007

>  <SCORE.heavy>
10

>  <SCORE.norm>
-4.16749

$$$$
P151032918
 OpenBabel12072022113D
libRbt.so/2013.1/901 2013/11/27
 16 16  0  0  0  0  0  0  0  0999 V2000
  -30.6991   18.2355  -17.7581 C   0  0  0  0  0  0  0  0  0  0  0  0
  -29.7245   17.9372  -16.6267 C   0  0  1  0  0  0  0  0  0  0  0  0
  -30.2738   18.1183  -15.1930 C   0  0  2  0  0  0  0  0  0  0  0  0
  -29.3592   17.2116  -14.3397 C   0  0  1  0  0  0  0  0  0  0  0  0
  -29.2700   15.9680  -15.2229 C   0  0  2  0  0  0  0  0  0  0  0  0
  -29.0812   16.5297  -16.6455 C   0  0  1  0  0  0  0  0  0  0  0  0
  -29.7005   15.6438  -17.5702 O   0  0  0  0  0  0  0  0  0  0  0  0
  -30.5382   15.2824  -15.1683 O   0  0  0  0  0  0  0  0  0  0  0  0
  -28.0925   17.8259  -14.1630 O   0  0  0  0  0  0  0  0  0  0  0  0
  -31.6880   17.6519  -15.0731 N   0  3  0  0  0  0  0  0  0  0  0  0
  -32.0847   18.0023  -14.1749 H   0  0  0  0  0  0  0  0  0  0  0  0
  -32.2825   18.0413  -15.8148 H   0  0  0  0  0  0  0  0  0  0  0  0
  -31.7897   16.6312  -15.0897 H   0  0  0  0  0  0  0  0  0  0  0  0
  -29.3320   15.8295  -18.4566 H   0  0  0  0  0  0  0  0  0  0  0  0
  -30.5701   14.7801  -16.0177 H   0  0  0  0  0  0  0  0  0  0  0  0
  -28.2090   18.6323  -13.6226 H   0  0  0  0  0  0  0  0  0  0  0  0
  2  1  1  6  0  0  0
  2  3  1  0  0  0  0
  3 10  1  6  0  0  0
  3  4  1  0  0  0  0
  4  9  1  6  0  0  0
  4  5  1  0  0  0  0
  5  8  1  6  0  0  0
  5  6  1  0  0  0  0
  6  2  1  0  0  0  0
  6  7  1  6  0  0  0
  7 14  1  0  0  0  0
  8 15  1  0  0  0  0
  9 16  1  0  0  0  0
 10 11  1  0  0  0  0
 10 12  1  0  0  0  0
 10 13  1  0  0  0  0
M  CHG  1  10   1
M  END
>  <CHROM.0>
-60.82029526,50.28739307,-69.78752491,-42.66907154,-177.04185638,-52.13859795
-64.21893327,-58.39611317,-168.42047689

>  <CHROM.1>
-166.27729447,66.20861671,154.84978896,81.73137722,-29.87802746,17.01087870
-15.77967369,2.22921681,0.99642903,-2.36756092

>  <Name>
P151032918

>  <RI>
0

>  <Rbt.Current_Directory>
/home/fstefaniak/projects/zuza/docking/adenine/4TZX

>  <Rbt.Executable>
rbdock ($Id: //depot/dev/client3/rdock/2013.1/src/exe/rbdock.cxx#4 $)

>  <Rbt.Library>
libRbt.so (2013.1, Build901 2013/11/27)

>  <Rbt.Parameter_File>
/home/fstefaniak/progs/rDock//data/scripts/dock_solv.prm

>  <Rbt.Receptor>
4tzx.prm

>  <SCORE>
-41.2486

>  <SCORE.INTER>
-21.9762

>  <SCORE.INTER.CONST>
1

>  <SCORE.INTER.POLAR>
-3.77119

>  <SCORE.INTER.ROT>
0

>  <SCORE.INTER.SOLV>
20.3836

>  <SCORE.INTER.VDW>
-12.4747

>  <SCORE.INTER.norm>
-2.19762

>  <SCORE.INTRA>
1.00322

>  <SCORE.INTRA.DIHEDRAL>
1.74519

>  <SCORE.INTRA.DIHEDRAL.0>
3.92058

>  <SCORE.INTRA.POLAR>
-0.0664383

>  <SCORE.INTRA.POLAR.0>
-0.96714

>  <SCORE.INTRA.REPUL>
0

>  <SCORE.INTRA.REPUL.0>
0

>  <SCORE.INTRA.SOLV>
-0.266857

>  <SCORE.INTRA.SOLV.lig_0>
-31.5703

>  <SCORE.INTRA.VDW>
0.489945

>  <SCORE.INTRA.VDW.0>
-0.300275

>  <SCORE.INTRA.norm>
0.100322

>  <SCORE.RESTR>
0

>  <SCORE.RESTR.CAVITY>
0

>  <SCORE.RESTR.norm>
0

>  <SCORE.SYSTEM>
-20.2757

>  <SCORE.SYSTEM.CONST>
0

>  <SCORE.SYSTEM.DIHEDRAL>
5.34571

>  <SCORE.SYSTEM.POLAR>
-3.1157

>  <SCORE.SYSTEM.SOLV>
0.112952

>  <SCORE.SYSTEM.VDW>
-4.95102

>  <SCORE.SYSTEM.norm>
-2.02757

>  <SCORE.heavy>
10

>  <SCORE.norm>
-4.12486

$$$$
P151032918
 OpenBabel12072022113D
libRbt.so/2013.1/901 2013/11/27
 16 16  0  0  0  0  0  0  0  0999 V2000
  -31.2462   18.7830  -17.3606 C   0  0  0  0  0  0  0  0  0  0  0  0
  -30.0183   18.3240  -16.5856 C   0  0  1  0  0  0  0  0  0  0  0  0
  -30.2514   17.9540  -15.1029 C   0  0  2  0  0  0  0  0  0  0  0  0
  -29.0783   17.0019  -14.7806 C   0  0  1  0  0  0  0  0  0  0  0  0
  -29.0548   16.1281  -16.0337 C   0  0  2  0  0  0  0  0  0  0  0  0
  -29.2483   17.1262  -17.1919 C   0  0  1  0  0  0  0  0  0  0  0  0
  -29.9589   16.4762  -18.2387 O   0  0  0  0  0  0  0  0  0  0  0  0
  -30.1981   15.2492  -15.9940 O   0  0  0  0  0  0  0  0  0  0  0  0
  -27.8773   17.7423  -14.6304 O   0  0  0  0  0  0  0  0  0  0  0  0
  -31.5452   17.2343  -14.9030 N   0  3  0  0  0  0  0  0  0  0  0  0
  -31.4948   16.3089  -15.3807 H   0  0  0  0  0  0  0  0  0  0  0  0
  -31.7193   17.0305  -13.9113 H   0  0  0  0  0  0  0  0  0  0  0  0
  -32.3599   17.7384  -15.2698 H   0  0  0  0  0  0  0  0  0  0  0  0
  -29.9667   17.0739  -19.0124 H   0  0  0  0  0  0  0  0  0  0  0  0
  -29.9196   14.5295  -15.3781 H   0  0  0  0  0  0  0  0  0  0  0  0
  -27.7240   18.2580  -15.4466 H   0  0  0  0  0  0  0  0  0  0  0  0
  2  1  1  6  0  0  0
  2  3  1  0  0  0  0
  3 10  1  6  0  0  0
  3  4  1  0  0  0  0
  4  9  1  6  0  0  0
  4  5  1  0  0  0  0
  5  8  1  1  0  0  0
  5  6  1  0  0  0  0
  6  2  1  0  0  0  0
  6  7  1  6  0  0  0
  7 14  1  0  0  0  0
  8 15  1  0  0  0  0
  9 16  1  0  0  0  0
 10 11  1  0  0  0  0
 10 12  1  0  0  0  0
 10 13  1  0  0  0  0
M  CHG  1  10   1
M  END
>  <CHROM.0>
-56.87107102,-63.38689495,-62.41973987,-43.17650897,-55.74770017,58.68752227
-67.81596037,-174.56825007,-168.26705586

>  <CHROM.1>
66.07594878,-56.59508830,-79.69469056,70.79338268,-29.87557704,17.16516105
-16.08982010,2.40475524,0.78392918,-2.10828295

>  <Name>
P151032918

>  <RI>
0

>  <Rbt.Current_Directory>
/home/fstefaniak/projects/zuza/docking/adenine/4TZX

>  <Rbt.Executable>
rbdock ($Id: //depot/dev/client3/rdock/2013.1/src/exe/rbdock.cxx#4 $)

>  <Rbt.Library>
libRbt.so (2013.1, Build901 2013/11/27)

>  <Rbt.Parameter_File>
/home/fstefaniak/progs/rDock//data/scripts/dock_solv.prm

>  <Rbt.Receptor>
4tzx.prm

>  <SCORE>
-40.7974

>  <SCORE.INTER>
-21.1638

>  <SCORE.INTER.CONST>
1

>  <SCORE.INTER.POLAR>
-2.63632

>  <SCORE.INTER.ROT>
0

>  <SCORE.INTER.SOLV>
20.7403

>  <SCORE.INTER.VDW>
-15.8349

>  <SCORE.INTER.norm>
-2.11638

>  <SCORE.INTRA>
0.360093

>  <SCORE.INTRA.DIHEDRAL>
-1.09151

>  <SCORE.INTRA.DIHEDRAL.0>
3.92058

>  <SCORE.INTRA.POLAR>
0.152674

>  <SCORE.INTRA.POLAR.0>
-0.96714

>  <SCORE.INTRA.REPUL>
0

>  <SCORE.INTRA.REPUL.0>
0

>  <SCORE.INTRA.SOLV>
-0.204932

>  <SCORE.INTRA.SOLV.lig_0>
-31.5703

>  <SCORE.INTRA.VDW>
0.489221

>  <SCORE.INTRA.VDW.0>
-0.300275

>  <SCORE.INTRA.norm>
0.0360093

>  <SCORE.RESTR>
0

>  <SCORE.RESTR.CAVITY>
0

>  <SCORE.RESTR.norm>
0

>  <SCORE.SYSTEM>
-19.9937

>  <SCORE.SYSTEM.CONST>
0

>  <SCORE.SYSTEM.DIHEDRAL>
4.62456

>  <SCORE.SYSTEM.POLAR>
-3.08139

>  <SCORE.SYSTEM.SOLV>
-0.0715245

>  <SCORE.SYSTEM.VDW>
-4.57552

>  <SCORE.SYSTEM.norm>
-1.99937

>  <SCORE.heavy>
10

>  <SCORE.norm>
-4.07974

$$$$
P151033173
 OpenBabel12072022113D
libRbt.so/2013.1/901 2013/11/27
 12 12  0  0  0  0  0  0  0  0999 V2000
  -29.6605   15.1654  -16.0616 C   0  0  0  0  0  0  0  0  0  0  0  0
  -29.0812   16.5774  -16.1940 C   0  0  1  0  0  0  0  0  0  0  0  0
  -29.6962   17.3781  -17.3415 C   0  0  0  0  0  0  0  0  0  0  0  0
  -30.8566   18.2247  -16.8325 C   0  0  0  0  0  0  0  0  0  0  0  0
  -31.3188   17.6911  -15.5956 O   0  0  0  0  0  0  0  0  0  0  0  0
  -30.3565   17.9139  -14.5844 N   0  0  0  0  0  0  0  0  0  0  0  0
  -29.2093   17.3599  -14.8498 C   0  0  0  0  0  0  0  0  0  0  0  0
  -28.1647   17.3906  -14.1571 O   0  5  0  0  0  0  0  0  0  0  0  0
  -27.6017   16.4299  -16.4251 N   0  3  0  0  0  0  0  0  0  0  0  0
  -27.6217   15.8937  -17.3261 H   0  0  0  0  0  0  0  0  0  0  0  0
  -27.0597   17.2807  -16.5399 H   0  0  0  0  0  0  0  0  0  0  0  0
  -27.1942   15.7411  -15.7918 H   0  0  0  0  0  0  0  0  0  0  0  0
  2  3  1  0  0  0  0
  2  7  1  0  0  0  0
  2  9  1  0  0  0  0
  2  1  1  1  0  0  0
  3  4  1  0  0  0  0
  4  5  1  0  0  0  0
  5  6  1  0  0  0  0
  6  7  2  0  0  0  0
  7  8  1  0  0  0  0
  9 10  1  0  0  0  0
  9 11  1  0  0  0  0
  9 12  1  0  0  0  0
M  CHG  2   8  -1   9   1
M  END
>  <CHROM.0>
-61.74460827,-62.58869399,-63.65781368,-43.41531929,-57.53685951,-62.02755909
-65.63940466,-59.81650076,-168.62573534

>  <CHROM.1>
61.32805322,-29.51644633,17.10885514,-15.78313600,0.11161771,0.47550303,-1.98163772

>  <Name>
P151033173

>  <RI>
0

>  <Rbt.Current_Directory>
/home/fstefaniak/projects/zuza/docking/adenine/4TZX

>  <Rbt.Executable>
rbdock ($Id: //depot/dev/client3/rdock/2013.1/src/exe/rbdock.cxx#4 $)

>  <Rbt.Library>
libRbt.so (2013.1, Build901 2013/11/27)

>  <Rbt.Parameter_File>
/home/fstefaniak/progs/rDock//data/scripts/dock_solv.prm

>  <Rbt.Receptor>
4tzx.prm

>  <SCORE>
-40.9457

>  <SCORE.INTER>
-18.5547

>  <SCORE.INTER.CONST>
1

>  <SCORE.INTER.POLAR>
-2.70726

>  <SCORE.INTER.ROT>
0

>  <SCORE.INTER.SOLV>
18.509

>  <SCORE.INTER.VDW>
-13.1153

>  <SCORE.INTER.norm>
-2.06164

>  <SCORE.INTRA>
-1.21532

>  <SCORE.INTRA.DIHEDRAL>
-1.34334

>  <SCORE.INTRA.DIHEDRAL.0>
1.49454

>  <SCORE.INTRA.POLAR>
0

>  <SCORE.INTRA.POLAR.0>
0

>  <SCORE.INTRA.REPUL>
0

>  <SCORE.INTRA.REPUL.0>
0

>  <SCORE.INTRA.SOLV>
-0.666916

>  <SCORE.INTRA.SOLV.lig_0>
-40.4381

>  <SCORE.INTRA.VDW>
-0.210198

>  <SCORE.INTRA.VDW.0>
1.31266

>  <SCORE.INTRA.norm>
-0.135036

>  <SCORE.RESTR>
0

>  <SCORE.RESTR.CAVITY>
0

>  <SCORE.RESTR.norm>
0

>  <SCORE.SYSTEM>
-21.1756

>  <SCORE.SYSTEM.CONST>
0

>  <SCORE.SYSTEM.DIHEDRAL>
4.22945

>  <SCORE.SYSTEM.POLAR>
-3.04329

>  <SCORE.SYSTEM.SOLV>
0.187325

>  <SCORE.SYSTEM.VDW>
-5.44507

>  <SCORE.SYSTEM.norm>
-2.35285

>  <SCORE.heavy>
9

>  <SCORE.norm>
-4.54952

$$$$
P151033173
 OpenBabel12072022113D
libRbt.so/2013.1/901 2013/11/27
 12 12  0  0  0  0  0  0  0  0999 V2000
  -29.6794   15.1745  -16.0258 C   0  0  0  0  0  0  0  0  0  0  0  0
  -29.0788   16.5750  -16.1840 C   0  0  1  0  0  0  0  0  0  0  0  0
  -29.6980   17.3722  -17.3317 C   0  0  0  0  0  0  0  0  0  0  0  0
  -30.8363   18.2440  -16.8155 C   0  0  0  0  0  0  0  0  0  0  0  0
  -31.2883   17.7329  -15.5653 O   0  0  0  0  0  0  0  0  0  0  0  0
  -30.3071   17.9516  -14.5716 N   0  0  0  0  0  0  0  0  0  0  0  0
  -29.1734   17.3754  -14.8476 C   0  0  0  0  0  0  0  0  0  0  0  0
  -28.1179   17.3967  -14.1712 O   0  5  0  0  0  0  0  0  0  0  0  0
  -27.6057   16.4000  -16.4356 N   0  3  0  0  0  0  0  0  0  0  0  0
  -27.6478   15.8827  -17.3470 H   0  0  0  0  0  0  0  0  0  0  0  0
  -27.0465   17.2410  -16.5399 H   0  0  0  0  0  0  0  0  0  0  0  0
  -27.2062   15.6898  -15.8212 H   0  0  0  0  0  0  0  0  0  0  0  0
  2  3  1  0  0  0  0
  2  7  1  0  0  0  0
  2  9  1  0  0  0  0
  2  1  1  1  0  0  0
  3  4  1  0  0  0  0
  4  5  1  0  0  0  0
  5  6  1  0  0  0  0
  6  7  2  0  0  0  0
  7  8  1  0  0  0  0
  9 10  1  0  0  0  0
  9 11  1  0  0  0  0
  9 12  1  0  0  0  0
M  CHG  2   8  -1   9   1
M  END
>  <CHROM.0>
-60.63666588,-64.58203076,-68.59669053,-43.23694038,-58.27409366,-62.75123014
-66.90259609,-61.44959564,-169.26013029

>  <CHROM.1>
63.20343987,-29.49888297,17.11850625,-15.77315936,0.13505430,0.48434901,-2.00432756

>  <Name>
P151033173

>  <RI>
0

>  <Rbt.Current_Directory>
/home/fstefaniak/projects/zuza/docking/adenine/4TZX

>  <Rbt.Executable>
rbdock ($Id: //depot/dev/client3/rdock/2013.1/src/exe/rbdock.cxx#4 $)

>  <Rbt.Library>
libRbt.so (2013.1, Build901 2013/11/27)

>  <Rbt.Parameter_File>
/home/fstefaniak/progs/rDock//data/scripts/dock_solv.prm

>  <Rbt.Receptor>
4tzx.prm

>  <SCORE>
-40.9126

>  <SCORE.INTER>
-18.526

>  <SCORE.INTER.CONST>
1

>  <SCORE.INTER.POLAR>
-2.71907

>  <SCORE.INTER.ROT>
0

>  <SCORE.INTER.SOLV>
18.4535

>  <SCORE.INTER.VDW>
-13.0383

>  <SCORE.INTER.norm>
-2.05845

>  <SCORE.INTRA>
-1.19152

>  <SCORE.INTRA.DIHEDRAL>
-1.30448

>  <SCORE.INTRA.DIHEDRAL.0>
1.49454

>  <SCORE.INTRA.POLAR>
0

>  <SCORE.INTRA.POLAR.0>
0

>  <SCORE.INTRA.REPUL>
0

>  <SCORE.INTRA.REPUL.0>
0

>  <SCORE.INTRA.SOLV>
-0.664343

>  <SCORE.INTRA.SOLV.lig_0>
-40.4381

>  <SCORE.INTRA.VDW>
-0.207106

>  <SCORE.INTRA.VDW.0>
1.31266

>  <SCORE.INTRA.norm>
-0.132391

>  <SCORE.RESTR>
0

>  <SCORE.RESTR.CAVITY>
0

>  <SCORE.RESTR.norm>
0

>  <SCORE.SYSTEM>
-21.1951

>  <SCORE.SYSTEM.CONST>
0

>  <SCORE.SYSTEM.DIHEDRAL>
4.60425

>  <SCORE.SYSTEM.POLAR>
-3.03385

>  <SCORE.SYSTEM.SOLV>
0.172807

>  <SCORE.SYSTEM.VDW>
-5.60955

>  <SCORE.SYSTEM.norm>
-2.35501

>  <SCORE.heavy>
9

>  <SCORE.norm>
-4.54585

$$$$
P151033173
 OpenBabel12072022113D
libRbt.so/2013.1/901 2013/11/27
 12 12  0  0  0  0  0  0  0  0999 V2000
  -29.7243   15.1785  -16.0001 C   0  0  0  0  0  0  0  0  0  0  0  0
  -29.0963   16.5621  -16.1956 C   0  0  1  0  0  0  0  0  0  0  0  0
  -29.6774   17.3273  -17.3842 C   0  0  0  0  0  0  0  0  0  0  0  0
  -30.8109   18.2362  -16.9242 C   0  0  0  0  0  0  0  0  0  0  0  0
  -31.2976   17.7784  -15.6665 O   0  0  0  0  0  0  0  0  0  0  0  0
  -30.3337   18.0166  -14.6605 N   0  0  0  0  0  0  0  0  0  0  0  0
  -29.2047   17.4119  -14.8912 C   0  0  0  0  0  0  0  0  0  0  0  0
  -28.1634   17.4403  -14.1934 O   0  5  0  0  0  0  0  0  0  0  0  0
  -27.6215   16.3535  -16.4091 N   0  3  0  0  0  0  0  0  0  0  0  0
  -27.3239   17.3512  -16.5349 H   0  0  0  0  0  0  0  0  0  0  0  0
  -27.0955   15.9277  -15.6521 H   0  0  0  0  0  0  0  0  0  0  0  0
  -27.4313   15.9700  -17.3355 H   0  0  0  0  0  0  0  0  0  0  0  0
  2  3  1  0  0  0  0
  2  7  1  0  0  0  0
  2  9  1  0  0  0  0
  2  1  1  1  0  0  0
  3  4  1  0  0  0  0
  4  5  1  0  0  0  0
  5  6  1  0  0  0  0
  6  7  2  0  0  0  0
  7  8  1  0  0  0  0
  9 10  1  0  0  0  0
  9 11  1  0  0  0  0
  9 12  1  0  0  0  0
M  CHG  2   8  -1   9   1
M  END
>  <CHROM.0>
-60.12888245,-62.13262015,-62.62315155,-43.26104905,-55.21882415,-65.99780730
-66.02785866,-58.61668621,-169.21843887

>  <CHROM.1>
179.51679105,-29.51453040,17.13177630,-15.81309559,0.10958985,0.50467222
-2.02856825

>  <Name>
P151033173

>  <RI>
0

>  <Rbt.Current_Directory>
/home/fstefaniak/projects/zuza/docking/adenine/4TZX

>  <Rbt.Executable>
rbdock ($Id: //depot/dev/client3/rdock/2013.1/src/exe/rbdock.cxx#4 $)

>  <Rbt.Library>
libRbt.so (2013.1, Build901 2013/11/27)

>  <Rbt.Parameter_File>
/home/fstefaniak/progs/rDock//data/scripts/dock_solv.prm

>  <Rbt.Receptor>
4tzx.prm

>  <SCORE>
-39.2923

>  <SCORE.INTER>
-16.4715

>  <SCORE.INTER.CONST>
1

>  <SCORE.INTER.POLAR>
-2.43157

>  <SCORE.INTER.ROT>
0

>  <SCORE.INTER.SOLV>
18.5697

>  <SCORE.INTER.VDW>
-12.6657

>  <SCORE.INTER.norm>
-1.83017

>  <SCORE.INTRA>
-1.6799

>  <SCORE.INTRA.DIHEDRAL>
-1.36578

>  <SCORE.INTRA.DIHEDRAL.0>
1.49454

>  <SCORE.INTRA.POLAR>
0

>  <SCORE.INTRA.POLAR.0>
0

>  <SCORE.INTRA.REPUL>
0

>  <SCORE.INTRA.REPUL.0>
0

>  <SCORE.INTRA.SOLV>
-0.252727

>  <SCORE.INTRA.SOLV.lig_0>
-40.4381

>  <SCORE.INTRA.VDW>
-0.870645

>  <SCORE.INTRA.VDW.0>
1.31266

>  <SCORE.INTRA.norm>
-0.186656

>  <SCORE.RESTR>
0

>  <SCORE.RESTR.CAVITY>
0

>  <SCORE.RESTR.norm>
0

>  <SCORE.SYSTEM>
-21.1409

>  <SCORE.SYSTEM.CONST>
0

>  <SCORE.SYSTEM.DIHEDRAL>
4.38992

>  <SCORE.SYSTEM.POLAR>
-3.05512

>  <SCORE.SYSTEM.SOLV>
0.18741

>  <SCORE.SYSTEM.VDW>
-5.43596

>  <SCORE.SYSTEM.norm>
-2.34898

>  <SCORE.heavy>
9

>  <SCORE.norm>
-4.36581

$$$$
P151076806
 OpenBabel12072022113D
libRbt.so/2013.1/901 2013/11/27
 17 18  0  0  0  0  0  0  0  0999 V2000
  -23.5687   12.3424  -16.7058 C   0  0  0  0  0  0  0  0  0  0  0  0
  -24.8207   12.7571  -15.9127 C   0  0  0  0  0  0  0  0  0  0  0  0
  -25.4704   14.0377  -16.5370 C   0  0  1  0  0  0  0  0  0  0  0  0
  -26.5353   13.1463  -17.2240 C   0  0  1  0  0  0  0  0  0  0  0  0
  -26.1690   11.9983  -16.2433 C   0  0  2  0  0  0  0  0  0  0  0  0
  -27.0538   11.6083  -15.0480 C   0  0  0  0  0  0  0  0  0  0  0  0
  -27.2192   12.6083  -14.2670 O   0  0  0  0  0  0  0  0  0  0  0  0
  -27.4031   10.4209  -14.8436 O   0  5  0  0  0  0  0  0  0  0  0  0
  -25.9512   10.6815  -16.9702 N   0  3  0  0  0  0  0  0  0  0  0  0
  -26.7634   10.1170  -17.1933 H   0  0  0  0  0  0  0  0  0  0  0  0
  -25.4636   11.0006  -17.8487 H   0  0  0  0  0  0  0  0  0  0  0  0
  -25.2090   10.1490  -16.5036 H   0  0  0  0  0  0  0  0  0  0  0  0
  -27.9052   13.7929  -17.4243 C   0  0  0  0  0  0  0  0  0  0  0  0
  -28.2479   14.8826  -16.4075 C   0  0  0  0  0  0  0  0  0  0  0  0
  -27.0696   15.7910  -16.0923 C   0  0  0  0  0  0  0  0  0  0  0  0
  -25.9742   15.0180  -15.6124 O   0  0  0  0  0  0  0  0  0  0  0  0
  -24.4582   12.8781  -14.4293 C   0  0  0  0  0  0  0  0  0  0  0  0
  1  2  1  0  0  0  0
  2  3  1  0  0  0  0
  2  5  1  0  0  0  0
  2 17  1  0  0  0  0
  3 16  1  1  0  0  0
  3  4  1  0  0  0  0
  4 13  1  1  0  0  0
  4  5  1  0  0  0  0
  5  6  1  1  0  0  0
  5  9  1  0  0  0  0
  6  7  2  0  0  0  0
  6  8  1  0  0  0  0
  9 10  1  0  0  0  0
  9 11  1  0  0  0  0
  9 12  1  0  0  0  0
 13 14  1  0  0  0  0
 14 15  1  0  0  0  0
 15 16  1  0  0  0  0
M  CHG  2   8  -1   9   1
M  END
>  <CHROM.0>
-60.68034486,-68.67484715,-62.91916476,-42.85574258,-57.64170620,-63.39216042
-67.51972666,-174.78727656,-168.64991895

>  <CHROM.1>
48.90048870,178.06548227,-26.27307827,12.96583341,-15.96026732,-1.23484793
0.09031369,-0.19603790

>  <Name>
P151076806

>  <RI>
0

>  <Rbt.Current_Directory>
/home/fstefaniak/projects/zuza/docking/adenine/4TZX

>  <Rbt.Executable>
rbdock ($Id: //depot/dev/client3/rdock/2013.1/src/exe/rbdock.cxx#4 $)

>  <Rbt.Library>
libRbt.so (2013.1, Build901 2013/11/27)

>  <Rbt.Parameter_File>
/home/fstefaniak/progs/rDock//data/scripts/dock_solv.prm

>  <Rbt.Receptor>
4tzx.prm

>  <SCORE>
-34.667

>  <SCORE.INTER>
-14.9968

>  <SCORE.INTER.CONST>
1

>  <SCORE.INTER.POLAR>
-1.78106

>  <SCORE.INTER.ROT>
1

>  <SCORE.INTER.SOLV>
9.66437

>  <SCORE.INTER.VDW>
-11.5491

>  <SCORE.INTER.norm>
-1.0712

>  <SCORE.INTRA>
-0.163349

>  <SCORE.INTRA.DIHEDRAL>
-0.108027

>  <SCORE.INTRA.DIHEDRAL.0>
1.54845

>  <SCORE.INTRA.POLAR>
0

>  <SCORE.INTRA.POLAR.0>
0

>  <SCORE.INTRA.REPUL>
0

>  <SCORE.INTRA.REPUL.0>
0

>  <SCORE.INTRA.SOLV>
-0.320019

>  <SCORE.INTRA.SOLV.lig_0>
-39.0855

>  <SCORE.INTRA.VDW>
0.0506744

>  <SCORE.INTRA.VDW.0>
0.00164971

>  <SCORE.INTRA.norm>
-0.0116678

>  <SCORE.RESTR>
1.58575

>  <SCORE.RESTR.CAVITY>
1.58575

>  <SCORE.RESTR.norm>
0.113268

>  <SCORE.SYSTEM>
-21.0926

>  <SCORE.SYSTEM.CONST>
0

>  <SCORE.SYSTEM.DIHEDRAL>
4.86171

>  <SCORE.SYSTEM.POLAR>
-3.05628

>  <SCORE.SYSTEM.SOLV>
0.0461066

>  <SCORE.SYSTEM.VDW>
-5.51005

>  <SCORE.SYSTEM.norm>
-1.50661

>  <SCORE.heavy>
14

>  <SCORE.norm>
-2.47621

$$$$
P151076806
 OpenBabel12072022113D
libRbt.so/2013.1/901 2013/11/27
 17 18  0  0  0  0  0  0  0  0999 V2000
  -23.5383   12.3258  -16.6640 C   0  0  0  0  0  0  0  0  0  0  0  0
  -24.7957   12.7520  -15.8857 C   0  0  0  0  0  0  0  0  0  0  0  0
  -25.4345   14.0300  -16.5265 C   0  0  1  0  0  0  0  0  0  0  0  0
  -26.4968   13.1372  -17.2156 C   0  0  1  0  0  0  0  0  0  0  0  0
  -26.1440   11.9959  -16.2222 C   0  0  2  0  0  0  0  0  0  0  0  0
  -27.0411   11.6194  -15.0318 C   0  0  0  0  0  0  0  0  0  0  0  0
  -27.2175   12.6291  -14.2658 O   0  0  0  0  0  0  0  0  0  0  0  0
  -27.3898   10.4339  -14.8157 O   0  5  0  0  0  0  0  0  0  0  0  0
  -25.9250   10.6723  -16.9362 N   0  3  0  0  0  0  0  0  0  0  0  0
  -25.4901    9.9154  -16.4202 H   0  0  0  0  0  0  0  0  0  0  0  0
  -26.9079   10.4170  -17.2191 H   0  0  0  0  0  0  0  0  0  0  0  0
  -25.4848   10.8409  -17.8472 H   0  0  0  0  0  0  0  0  0  0  0  0
  -27.8622   13.7876  -17.4337 C   0  0  0  0  0  0  0  0  0  0  0  0
  -28.2096   14.8871  -16.4291 C   0  0  0  0  0  0  0  0  0  0  0  0
  -27.0305   15.7933  -16.1107 C   0  0  0  0  0  0  0  0  0  0  0  0
  -25.9426   15.0199  -15.6146 O   0  0  0  0  0  0  0  0  0  0  0  0
  -24.4461   12.8839  -14.4002 C   0  0  0  0  0  0  0  0  0  0  0  0
  1  2  1  0  0  0  0
  2  3  1  0  0  0  0
  2  5  1  0  0  0  0
  2 17  1  0  0  0  0
  3 16  1  1  0  0  0
  3  4  1  0  0  0  0
  4 13  1  1  0  0  0
  4  5  1  0  0  0  0
  5  6  1  1  0  0  0
  5  9  1  0  0  0  0
  6  7  2  0  0  0  0
  6  8  1  0  0  0  0
  9 10  1  0  0  0  0
  9 11  1  0  0  0  0
  9 12  1  0  0  0  0
 13 14  1  0  0  0  0
 14 15  1  0  0  0  0
 15 16  1  0  0  0  0
M  CHG  2   8  -1   9   1
M  END
>  <CHROM.0>
-60.88177240,-69.03271674,-68.18471776,-42.94114525,-56.66267688,-177.33493111
-68.11019998,-54.80916973,-168.81189015

>  <CHROM.1>
49.37719421,68.03566592,-26.24941749,12.96598904,-15.94843186,-1.24430532
0.07867504,-0.20289986

>  <Name>
P151076806

>  <RI>
0

>  <Rbt.Current_Directory>
/home/fstefaniak/projects/zuza/docking/adenine/4TZX

>  <Rbt.Executable>
rbdock ($Id: //depot/dev/client3/rdock/2013.1/src/exe/rbdock.cxx#4 $)

>  <Rbt.Library>
libRbt.so (2013.1, Build901 2013/11/27)

>  <Rbt.Parameter_File>
/home/fstefaniak/progs/rDock//data/scripts/dock_solv.prm

>  <Rbt.Receptor>
4tzx.prm

>  <SCORE>
-33.8769

>  <SCORE.INTER>
-13.7255

>  <SCORE.INTER.CONST>
1

>  <SCORE.INTER.POLAR>
-1.48566

>  <SCORE.INTER.ROT>
1

>  <SCORE.INTER.SOLV>
9.57989

>  <SCORE.INTER.VDW>
-11.6581

>  <SCORE.INTER.norm>
-0.980394

>  <SCORE.INTRA>
-0.858722

>  <SCORE.INTRA.DIHEDRAL>
-0.494008

>  <SCORE.INTRA.DIHEDRAL.0>
1.54845

>  <SCORE.INTRA.POLAR>
0

>  <SCORE.INTRA.POLAR.0>
0

>  <SCORE.INTRA.REPUL>
0

>  <SCORE.INTRA.REPUL.0>
0

>  <SCORE.INTRA.SOLV>
-0.327901

>  <SCORE.INTRA.SOLV.lig_0>
-39.0855

>  <SCORE.INTRA.VDW>
-0.447767

>  <SCORE.INTRA.VDW.0>
0.00164971

>  <SCORE.INTRA.norm>
-0.0613373

>  <SCORE.RESTR>
1.58286

>  <SCORE.RESTR.CAVITY>
1.58286

>  <SCORE.RESTR.norm>
0.113062

>  <SCORE.SYSTEM>
-20.8755

>  <SCORE.SYSTEM.CONST>
0

>  <SCORE.SYSTEM.DIHEDRAL>
5.17253

>  <SCORE.SYSTEM.POLAR>
-3.0597

>  <SCORE.SYSTEM.SOLV>
0.0618164

>  <SCORE.SYSTEM.VDW>
-5.46282

>  <SCORE.SYSTEM.norm>
-1.49111

>  <SCORE.heavy>
14

>  <SCORE.norm>
-2.41978

$$$$
P151076806
 OpenBabel12072022113D
libRbt.so/2013.1/901 2013/11/27
 17 18  0  0  0  0  0  0  0  0999 V2000
  -23.5606   12.3422  -16.6952 C   0  0  0  0  0  0  0  0  0  0  0  0
  -24.8146   12.7631  -15.9086 C   0  0  0  0  0  0  0  0  0  0  0  0
  -25.4550   14.0466  -16.5366 C   0  0  1  0  0  0  0  0  0  0  0  0
  -26.5206   13.1601  -17.2287 C   0  0  1  0  0  0  0  0  0  0  0  0
  -26.1648   12.0107  -16.2458 C   0  0  2  0  0  0  0  0  0  0  0  0
  -27.0575   11.6252  -15.0550 C   0  0  0  0  0  0  0  0  0  0  0  0
  -27.2196   12.6253  -14.2734 O   0  0  0  0  0  0  0  0  0  0  0  0
  -27.4158   10.4400  -14.8537 O   0  5  0  0  0  0  0  0  0  0  0  0
  -25.9495   10.6926  -16.9713 N   0  3  0  0  0  0  0  0  0  0  0  0
  -25.4911    9.9392  -16.4708 H   0  0  0  0  0  0  0  0  0  0  0  0
  -26.9368   10.4262  -17.2277 H   0  0  0  0  0  0  0  0  0  0  0  0
  -25.5371   10.8703  -17.8935 H   0  0  0  0  0  0  0  0  0  0  0  0
  -27.8864   13.8132  -17.4362 C   0  0  0  0  0  0  0  0  0  0  0  0
  -28.2291   14.9048  -16.4215 C   0  0  0  0  0  0  0  0  0  0  0  0
  -27.0481   15.8076  -16.1005 C   0  0  0  0  0  0  0  0  0  0  0  0
  -25.9589   15.0295  -15.6148 O   0  0  0  0  0  0  0  0  0  0  0  0
  -24.4591   12.8828  -14.4234 C   0  0  0  0  0  0  0  0  0  0  0  0
  1  2  1  0  0  0  0
  2  3  1  0  0  0  0
  2  5  1  0  0  0  0
  2 17  1  0  0  0  0
  3 16  1  1  0  0  0
  3  4  1  0  0  0  0
  4 13  1  1  0  0  0
  4  5  1  0  0  0  0
  5  6  1  1  0  0  0
  5  9  1  0  0  0  0
  6  7  2  0  0  0  0
  6  8  1  0  0  0  0
  9 10  1  0  0  0  0
  9 11  1  0  0  0  0
  9 12  1  0  0  0  0
 13 14  1  0  0  0  0
 14 15  1  0  0  0  0
 15 16  1  0  0  0  0
M  CHG  2   8  -1   9   1
M  END
>  <CHROM.0>
-56.72887758,-68.93997857,-65.86021281,-41.49087016,-57.94707998,-56.69903927
-66.96002235,-173.69238241,-168.67432847

>  <CHROM.1>
48.74842872,66.45117734,-26.26839107,12.97840414,-15.96386488,-1.24532410
0.08106699,-0.19415252

>  <Name>
P151076806

>  <RI>
0

>  <Rbt.Current_Directory>
/home/fstefaniak/projects/zuza/docking/adenine/4TZX

>  <Rbt.Executable>
rbdock ($Id: //depot/dev/client3/rdock/2013.1/src/exe/rbdock.cxx#4 $)

>  <Rbt.Library>
libRbt.so (2013.1, Build901 2013/11/27)

>  <Rbt.Parameter_File>
/home/fstefaniak/progs/rDock//data/scripts/dock_solv.prm

>  <Rbt.Receptor>
4tzx.prm

>  <SCORE>
-33.847

>  <SCORE.INTER>
-13.6694

>  <SCORE.INTER.CONST>
1

>  <SCORE.INTER.POLAR>
-1.56315

>  <SCORE.INTER.ROT>
1

>  <SCORE.INTER.SOLV>
9.62086

>  <SCORE.INTER.VDW>
-11.376

>  <SCORE.INTER.norm>
-0.976384

>  <SCORE.INTRA>
-0.785086

>  <SCORE.INTRA.DIHEDRAL>
-0.456345

>  <SCORE.INTRA.DIHEDRAL.0>
1.54845

>  <SCORE.INTRA.POLAR>
0

>  <SCORE.INTRA.POLAR.0>
0

>  <SCORE.INTRA.REPUL>
0

>  <SCORE.INTRA.REPUL.0>
0

>  <SCORE.INTRA.SOLV>
-0.331047

>  <SCORE.INTRA.SOLV.lig_0>
-39.0855

>  <SCORE.INTRA.VDW>
-0.39139

>  <SCORE.INTRA.VDW.0>
0.00164971

>  <SCORE.INTRA.norm>
-0.0560776

>  <SCORE.RESTR>
1.55367

>  <SCORE.RESTR.CAVITY>
1.55367

>  <SCORE.RESTR.norm>
0.110976

>  <SCORE.SYSTEM>
-20.9462

>  <SCORE.SYSTEM.CONST>
0

>  <SCORE.SYSTEM.DIHEDRAL>
5.2573

>  <SCORE.SYSTEM.POLAR>
-3.10648

>  <SCORE.SYSTEM.SOLV>
0.0653991

>  <SCORE.SYSTEM.VDW>
-5.38342

>  <SCORE.SYSTEM.norm>
-1.49616

>  <SCORE.heavy>
14

>  <SCORE.norm>
-2.41764

$$$$
P151246905
 OpenBabel12072022113D
libRbt.so/2013.1/901 2013/11/27
 11 11  0  0  0  0  0  0  0  0999 V2000
  -27.0114   11.5026  -17.3744 C   0  0  0  0  0  0  0  0  0  0  0  0
  -27.3602   12.1874  -16.0458 C   0  0  1  0  0  0  0  0  0  0  0  0
  -26.3139   11.8330  -14.9705 C   0  0  0  0  0  0  0  0  0  0  0  0
  -24.9831   12.5648  -15.1770 C   0  0  0  0  0  0  0  0  0  0  0  0
  -25.1695   14.0162  -15.2422 N   0  0  0  0  0  0  0  0  0  0  0  0
  -26.1044   14.3979  -16.3140 C   0  0  0  0  0  0  0  0  0  0  0  0
  -27.4625   13.7219  -16.1187 C   0  0  1  0  0  0  0  0  0  0  0  0
  -28.4176   14.1423  -17.2048 N   0  3  0  0  0  0  0  0  0  0  0  0
  -28.2925   13.6336  -18.3268 O   0  0  0  0  0  0  0  0  0  0  0  0
  -29.2859   14.9668  -16.8898 O   0  5  0  0  0  0  0  0  0  0  0  0
  -24.2663   14.4648  -15.4053 H   0  0  0  0  0  0  0  0  0  0  0  0
  2  1  1  6  0  0  0
  2  3  1  0  0  0  0
  2  7  1  0  0  0  0
  3  4  1  0  0  0  0
  4  5  1  0  0  0  0
  5  6  1  0  0  0  0
  5 11  1  0  0  0  0
  6  7  1  0  0  0  0
  7  8  1  6  0  0  0
  8  9  2  0  0  0  0
  8 10  1  0  0  0  0
M  CHG  2   8   1  10  -1
M  END
>  <CHROM.0>
-56.73953679,-61.03689582,-65.99403261,-43.56512814,-178.05922624,-59.13384666
-67.49883767,58.68642244,-168.48920049

>  <CHROM.1>
-48.86251505,-27.06326432,13.32430551,-16.40473103,0.27674055,0.63741295
-2.97516907

>  <Name>
P151246905

>  <RI>
0

>  <Rbt.Current_Directory>
/home/fstefaniak/projects/zuza/docking/adenine/4TZX

>  <Rbt.Executable>
rbdock ($Id: //depot/dev/client3/rdock/2013.1/src/exe/rbdock.cxx#4 $)

>  <Rbt.Library>
libRbt.so (2013.1, Build901 2013/11/27)

>  <Rbt.Parameter_File>
/home/fstefaniak/progs/rDock//data/scripts/dock_solv.prm

>  <Rbt.Receptor>
4tzx.prm

>  <SCORE>
-33.6129

>  <SCORE.INTER>
-14.7418

>  <SCORE.INTER.CONST>
1

>  <SCORE.INTER.POLAR>
-1.67014

>  <SCORE.INTER.ROT>
1

>  <SCORE.INTER.SOLV>
6.10297

>  <SCORE.INTER.VDW>
-10.5617

>  <SCORE.INTER.norm>
-1.47418

>  <SCORE.INTRA>
1.44596

>  <SCORE.INTRA.DIHEDRAL>
-0.0877648

>  <SCORE.INTRA.DIHEDRAL.0>
2.45713

>  <SCORE.INTRA.POLAR>
0

>  <SCORE.INTRA.POLAR.0>
0

>  <SCORE.INTRA.REPUL>
0

>  <SCORE.INTRA.REPUL.0>
0

>  <SCORE.INTRA.SOLV>
-0.0188277

>  <SCORE.INTRA.SOLV.lig_0>
-7.17545

>  <SCORE.INTRA.VDW>
1.49925

>  <SCORE.INTRA.VDW.0>
0.168428

>  <SCORE.INTRA.norm>
0.144596

>  <SCORE.RESTR>
0.0333842

>  <SCORE.RESTR.CAVITY>
0.0333842

>  <SCORE.RESTR.norm>
0.00333842

>  <SCORE.SYSTEM>
-20.3504

>  <SCORE.SYSTEM.CONST>
0

>  <SCORE.SYSTEM.DIHEDRAL>
4.42234

>  <SCORE.SYSTEM.POLAR>
-3.06466

>  <SCORE.SYSTEM.SOLV>
-0.162603

>  <SCORE.SYSTEM.VDW>
-4.77133

>  <SCORE.SYSTEM.norm>
-2.03504

>  <SCORE.heavy>
10

>  <SCORE.norm>
-3.36129

$$$$
P151246905
 OpenBabel12072022113D
libRbt.so/2013.1/901 2013/11/27
 11 11  0  0  0  0  0  0  0  0999 V2000
  -28.0173   12.9199  -18.0360 C   0  0  0  0  0  0  0  0  0  0  0  0
  -27.9345   12.9254  -16.5033 C   0  0  1  0  0  0  0  0  0  0  0  0
  -26.5940   12.3228  -16.0379 C   0  0  0  0  0  0  0  0  0  0  0  0
  -25.4109   13.2713  -16.2601 C   0  0  0  0  0  0  0  0  0  0  0  0
  -25.6316   14.5695  -15.6185 N   0  0  0  0  0  0  0  0  0  0  0  0
  -26.8659   15.2124  -16.1000 C   0  0  0  0  0  0  0  0  0  0  0  0
  -28.0794   14.3143  -15.8549 C   0  0  1  0  0  0  0  0  0  0  0  0
  -29.3380   14.9946  -16.3256 N   0  3  0  0  0  0  0  0  0  0  0  0
  -30.2745   15.1172  -15.5247 O   0  0  0  0  0  0  0  0  0  0  0  0
  -29.3414   15.4060  -17.4933 O   0  5  0  0  0  0  0  0  0  0  0  0
  -24.8352   15.1798  -15.8103 H   0  0  0  0  0  0  0  0  0  0  0  0
  2  1  1  6  0  0  0
  2  3  1  0  0  0  0
  2  7  1  0  0  0  0
  3  4  1  0  0  0  0
  4  5  1  0  0  0  0
  5  6  1  0  0  0  0
  5 11  1  0  0  0  0
  6  7  1  0  0  0  0
  7  8  1  6  0  0  0
  8  9  2  0  0  0  0
  8 10  1  0  0  0  0
M  CHG  2   8   1  10  -1
M  END
>  <CHROM.0>
-59.28031097,-65.46848571,-71.67730639,-43.33413241,-59.98685522,-63.90874682
-169.33292875,-59.41206982,-169.60939975

>  <CHROM.1>
108.75365060,-27.78306673,14.14282180,-16.38961359,0.33243214,0.28297122
-2.61827128

>  <Name>
P151246905

>  <RI>
0

>  <Rbt.Current_Directory>
/home/fstefaniak/projects/zuza/docking/adenine/4TZX

>  <Rbt.Executable>
rbdock ($Id: //depot/dev/client3/rdock/2013.1/src/exe/rbdock.cxx#4 $)

>  <Rbt.Library>
libRbt.so (2013.1, Build901 2013/11/27)

>  <Rbt.Parameter_File>
/home/fstefaniak/progs/rDock//data/scripts/dock_solv.prm

>  <Rbt.Receptor>
4tzx.prm

>  <SCORE>
-31.1298

>  <SCORE.INTER>
-10.7556

>  <SCORE.INTER.CONST>
1

>  <SCORE.INTER.POLAR>
-1.15875

>  <SCORE.INTER.ROT>
1

>  <SCORE.INTER.SOLV>
6.97063

>  <SCORE.INTER.VDW>
-9.89813

>  <SCORE.INTER.norm>
-1.07556

>  <SCORE.INTRA>
0.171904

>  <SCORE.INTRA.DIHEDRAL>
-0.0904306

>  <SCORE.INTRA.DIHEDRAL.0>
2.45713

>  <SCORE.INTRA.POLAR>
0

>  <SCORE.INTRA.POLAR.0>
0

>  <SCORE.INTRA.REPUL>
0

>  <SCORE.INTRA.REPUL.0>
0

>  <SCORE.INTRA.SOLV>
-0.0093941

>  <SCORE.INTRA.SOLV.lig_0>
-7.17545

>  <SCORE.INTRA.VDW>
0.221816

>  <SCORE.INTRA.VDW.0>
0.168428

>  <SCORE.INTRA.norm>
0.0171904

>  <SCORE.RESTR>
0

>  <SCORE.RESTR.CAVITY>
0

>  <SCORE.RESTR.norm>
0

>  <SCORE.SYSTEM>
-20.5461

>  <SCORE.SYSTEM.CONST>
0

>  <SCORE.SYSTEM.DIHEDRAL>
5.17801

>  <SCORE.SYSTEM.POLAR>
-3.01586

>  <SCORE.SYSTEM.SOLV>
0.150876

>  <SCORE.SYSTEM.VDW>
-5.42085

>  <SCORE.SYSTEM.norm>
-2.05461

>  <SCORE.heavy>
10

>  <SCORE.norm>
-3.11298

$$$$
P151246905
 OpenBabel12072022113D
libRbt.so/2013.1/901 2013/11/27
 11 11  0  0  0  0  0  0  0  0999 V2000
  -29.3269   17.4663  -14.5807 C   0  0  0  0  0  0  0  0  0  0  0  0
  -30.3758   16.7823  -15.4684 C   0  0  1  0  0  0  0  0  0  0  0  0
  -31.5454   17.7454  -15.7534 C   0  0  0  0  0  0  0  0  0  0  0  0
  -31.1780   18.8388  -16.7625 C   0  0  0  0  0  0  0  0  0  0  0  0
  -30.6743   18.2704  -18.0151 N   0  0  0  0  0  0  0  0  0  0  0  0
  -29.5040   17.4057  -17.7893 C   0  0  0  0  0  0  0  0  0  0  0  0
  -29.8430   16.2723  -16.8198 C   0  0  1  0  0  0  0  0  0  0  0  0
  -28.6467   15.3793  -16.6194 N   0  3  0  0  0  0  0  0  0  0  0  0
  -28.8229   14.1536  -16.6126 O   0  0  0  0  0  0  0  0  0  0  0  0
  -27.5512   15.9417  -16.4914 O   0  5  0  0  0  0  0  0  0  0  0  0
  -30.4175   19.0286  -18.6497 H   0  0  0  0  0  0  0  0  0  0  0  0
  2  1  1  6  0  0  0
  2  3  1  0  0  0  0
  2  7  1  0  0  0  0
  3  4  1  0  0  0  0
  4  5  1  0  0  0  0
  5  6  1  0  0  0  0
  5 11  1  0  0  0  0
  6  7  1  0  0  0  0
  7  8  1  1  0  0  0
  8  9  2  0  0  0  0
  8 10  1  0  0  0  0
M  CHG  2   8   1  10  -1
M  END
>  <CHROM.0>
-61.63039518,-61.34246193,-65.80906764,-43.43656236,-177.15870552,-61.63777894
-68.52523662,-60.83294875,-169.22787050

>  <CHROM.1>
97.36676282,-29.70083395,16.80096558,-16.49928427,2.96902722,0.87869174,-1.42020686

>  <Name>
P151246905

>  <RI>
0

>  <Rbt.Current_Directory>
/home/fstefaniak/projects/zuza/docking/adenine/4TZX

>  <Rbt.Executable>
rbdock ($Id: //depot/dev/client3/rdock/2013.1/src/exe/rbdock.cxx#4 $)

>  <Rbt.Library>
libRbt.so (2013.1, Build901 2013/11/27)

>  <Rbt.Parameter_File>
/home/fstefaniak/progs/rDock//data/scripts/dock_solv.prm

>  <Rbt.Receptor>
4tzx.prm

>  <SCORE>
-29.7048

>  <SCORE.INTER>
-8.36677

>  <SCORE.INTER.CONST>
1

>  <SCORE.INTER.POLAR>
0

>  <SCORE.INTER.ROT>
1

>  <SCORE.INTER.SOLV>
8.68848

>  <SCORE.INTER.VDW>
-12.7407

>  <SCORE.INTER.norm>
-0.836677

>  <SCORE.INTRA>
0.0172201

>  <SCORE.INTRA.DIHEDRAL>
-0.111234

>  <SCORE.INTRA.DIHEDRAL.0>
2.45713

>  <SCORE.INTRA.POLAR>
0

>  <SCORE.INTRA.POLAR.0>
0

>  <SCORE.INTRA.REPUL>
0

>  <SCORE.INTRA.REPUL.0>
0

>  <SCORE.INTRA.SOLV>
-0.00043614

>  <SCORE.INTRA.SOLV.lig_0>
-7.17545

>  <SCORE.INTRA.VDW>
0.073055

>  <SCORE.INTRA.VDW.0>
0.168428

>  <SCORE.INTRA.norm>
0.00172201

>  <SCORE.RESTR>
0

>  <SCORE.RESTR.CAVITY>
0

>  <SCORE.RESTR.norm>
0

>  <SCORE.SYSTEM>
-21.3552

>  <SCORE.SYSTEM.CONST>
0

>  <SCORE.SYSTEM.DIHEDRAL>
4.42374

>  <SCORE.SYSTEM.POLAR>
-3.03084

>  <SCORE.SYSTEM.SOLV>
-0.00997171

>  <SCORE.SYSTEM.VDW>
-5.60525

>  <SCORE.SYSTEM.norm>
-2.13552

>  <SCORE.heavy>
10

>  <SCORE.norm>
-2.97048

$$$$
P151250459
 OpenBabel12072022113D
libRbt.so/2013.1/901 2013/11/27
 15 16  0  0  0  0  0  0  0  0999 V2000
  -31.5963   18.2128  -13.0979 C   0  0  0  0  0  0  0  0  0  0  0  0
  -30.5823   17.9121  -14.1305 C   0  0  0  0  0  0  0  0  0  0  0  0
  -30.6167   17.9259  -15.5088 C   0  0  0  0  0  0  0  0  0  0  0  0
  -29.3208   17.5304  -15.9092 C   0  0  0  0  0  0  0  0  0  0  0  0
  -28.5269   17.2795  -14.8782 N   0  0  0  0  0  0  0  0  0  0  0  0
  -29.3055   17.5264  -13.8110 N   0  0  0  0  0  0  0  0  0  0  0  0
  -28.9014   17.4057  -12.8887 H   0  0  0  0  0  0  0  0  0  0  0  0
  -28.9889   17.4445  -17.2101 N   0  0  0  0  0  0  0  0  0  0  0  0
  -30.0638   17.3868  -18.2034 C   0  0  0  0  0  0  0  0  0  0  0  0
  -31.1512   18.4598  -17.8987 C   0  0  1  0  0  0  0  0  0  0  0  0
  -31.7117   18.2333  -16.4693 C   0  0  0  0  0  0  0  0  0  0  0  0
  -30.5811   19.8180  -18.0562 N   0  0  0  0  0  0  0  0  0  0  0  0
  -28.1453   16.9263  -17.4289 H   0  0  0  0  0  0  0  0  0  0  0  0
  -30.0251   20.0026  -17.2130 H   0  0  0  0  0  0  0  0  0  0  0  0
  -31.3276   20.5104  -18.0424 H   0  0  0  0  0  0  0  0  0  0  0  0
  1  2  1  0  0  0  0
  2  3  2  0  0  0  0
  2  6  1  0  0  0  0
  3  4  1  0  0  0  0
  3 11  1  0  0  0  0
  4  5  2  0  0  0  0
  4  8  1  0  0  0  0
  5  6  1  0  0  0  0
  6  7  1  0  0  0  0
  8  9  1  0  0  0  0
  8 13  1  0  0  0  0
  9 10  1  0  0  0  0
 10 11  1  0  0  0  0
 10 12  1  1  0  0  0
 12 14  1  0  0  0  0
 12 15  1  0  0  0  0
M  END
>  <CHROM.0>
-64.22138225,-63.49184663,-67.04906792,-42.76725601,-60.31454815,-60.92711684
-68.15946915,-58.98944135,-168.96759447

>  <CHROM.1>
-77.73469370,-30.21116651,18.00065061,-15.93489968,1.50957745,-0.48298322
1.71203184

>  <Name>
P151250459

>  <RI>
0

>  <Rbt.Current_Directory>
/home/fstefaniak/projects/zuza/docking/adenine/4TZX

>  <Rbt.Executable>
rbdock ($Id: //depot/dev/client3/rdock/2013.1/src/exe/rbdock.cxx#4 $)

>  <Rbt.Library>
libRbt.so (2013.1, Build901 2013/11/27)

>  <Rbt.Parameter_File>
/home/fstefaniak/progs/rDock//data/scripts/dock_solv.prm

>  <Rbt.Receptor>
4tzx.prm

>  <SCORE>
-51.9673

>  <SCORE.INTER>
-30.5363

>  <SCORE.INTER.CONST>
1

>  <SCORE.INTER.POLAR>
-4.00161

>  <SCORE.INTER.ROT>
1

>  <SCORE.INTER.SOLV>
15.2155

>  <SCORE.INTER.VDW>
-16.3573

>  <SCORE.INTER.norm>
-2.77603

>  <SCORE.INTRA>
-0.285274

>  <SCORE.INTRA.DIHEDRAL>
-0.162436

>  <SCORE.INTRA.DIHEDRAL.0>
0.507822

>  <SCORE.INTRA.POLAR>
0.0267913

>  <SCORE.INTRA.POLAR.0>
-0.0267913

>  <SCORE.INTRA.REPUL>
0

>  <SCORE.INTRA.REPUL.0>
0

>  <SCORE.INTRA.SOLV>
-0.0584982

>  <SCORE.INTRA.SOLV.lig_0>
-15.484

>  <SCORE.INTRA.VDW>
-0.265897

>  <SCORE.INTRA.VDW.0>
0.225154

>  <SCORE.INTRA.norm>
-0.025934

>  <SCORE.RESTR>
0

>  <SCORE.RESTR.CAVITY>
0

>  <SCORE.RESTR.norm>
0

>  <SCORE.SYSTEM>
-21.1457

>  <SCORE.SYSTEM.CONST>
0

>  <SCORE.SYSTEM.DIHEDRAL>
4.6638

>  <SCORE.SYSTEM.POLAR>
-3.03003

>  <SCORE.SYSTEM.SOLV>
0.170758

>  <SCORE.SYSTEM.VDW>
-5.60855

>  <SCORE.SYSTEM.norm>
-1.92233

>  <SCORE.heavy>
11

>  <SCORE.norm>
-4.7243

$$$$
P151250459
 OpenBabel12072022113D
libRbt.so/2013.1/901 2013/11/27
 15 16  0  0  0  0  0  0  0  0999 V2000
  -31.5238   18.2444  -13.0470 C   0  0  0  0  0  0  0  0  0  0  0  0
  -30.5224   17.9241  -14.0861 C   0  0  0  0  0  0  0  0  0  0  0  0
  -30.5712   17.9202  -15.4640 C   0  0  0  0  0  0  0  0  0  0  0  0
  -29.2820   17.5115  -15.8727 C   0  0  0  0  0  0  0  0  0  0  0  0
  -28.4789   17.2690  -14.8468 N   0  0  0  0  0  0  0  0  0  0  0  0
  -29.2448   17.5346  -13.7749 N   0  0  0  0  0  0  0  0  0  0  0  0
  -28.8318   17.4233  -12.8553 H   0  0  0  0  0  0  0  0  0  0  0  0
  -28.9643   17.4067  -17.1757 N   0  0  0  0  0  0  0  0  0  0  0  0
  -30.0499   17.3428  -18.1570 C   0  0  0  0  0  0  0  0  0  0  0  0
  -31.1274   18.4264  -17.8550 C   0  0  1  0  0  0  0  0  0  0  0  0
  -31.6743   18.2220  -16.4170 C   0  0  0  0  0  0  0  0  0  0  0  0
  -30.5508   19.7789  -18.0361 N   0  0  0  0  0  0  0  0  0  0  0  0
  -28.1261   16.8804  -17.3965 H   0  0  0  0  0  0  0  0  0  0  0  0
  -30.0033   19.9802  -17.1911 H   0  0  0  0  0  0  0  0  0  0  0  0
  -31.2949   20.4739  -18.0457 H   0  0  0  0  0  0  0  0  0  0  0  0
  1  2  1  0  0  0  0
  2  3  2  0  0  0  0
  2  6  1  0  0  0  0
  3  4  1  0  0  0  0
  3 11  1  0  0  0  0
  4  5  2  0  0  0  0
  4  8  1  0  0  0  0
  5  6  1  0  0  0  0
  6  7  1  0  0  0  0
  8  9  1  0  0  0  0
  8 13  1  0  0  0  0
  9 10  1  0  0  0  0
 10 11  1  0  0  0  0
 10 12  1  1  0  0  0
 12 14  1  0  0  0  0
 12 15  1  0  0  0  0
M  END
>  <CHROM.0>
-57.89029269,-61.03890125,-67.39160934,-43.47190376,-56.43528753,-60.62256223
-64.68172654,-59.48615953,-168.84171971

>  <CHROM.1>
-79.07530290,-30.16982956,17.98695151,-15.89534115,1.49856232,-0.49061875
1.69400646

>  <Name>
P151250459

>  <RI>
0

>  <Rbt.Current_Directory>
/home/fstefaniak/projects/zuza/docking/adenine/4TZX

>  <Rbt.Executable>
rbdock ($Id: //depot/dev/client3/rdock/2013.1/src/exe/rbdock.cxx#4 $)

>  <Rbt.Library>
libRbt.so (2013.1, Build901 2013/11/27)

>  <Rbt.Parameter_File>
/home/fstefaniak/progs/rDock//data/scripts/dock_solv.prm

>  <Rbt.Receptor>
4tzx.prm

>  <SCORE>
-51.9548

>  <SCORE.INTER>
-30.5812

>  <SCORE.INTER.CONST>
1

>  <SCORE.INTER.POLAR>
-4.14529

>  <SCORE.INTER.ROT>
1

>  <SCORE.INTER.SOLV>
15.1614

>  <SCORE.INTER.VDW>
-15.8903

>  <SCORE.INTER.norm>
-2.78011

>  <SCORE.INTRA>
-0.245855

>  <SCORE.INTRA.DIHEDRAL>
-0.103261

>  <SCORE.INTRA.DIHEDRAL.0>
0.507822

>  <SCORE.INTRA.POLAR>
0.0267913

>  <SCORE.INTRA.POLAR.0>
-0.0267913

>  <SCORE.INTRA.REPUL>
0

>  <SCORE.INTRA.REPUL.0>
0

>  <SCORE.INTRA.SOLV>
-0.0606755

>  <SCORE.INTRA.SOLV.lig_0>
-15.484

>  <SCORE.INTRA.VDW>
-0.254977

>  <SCORE.INTRA.VDW.0>
0.225154

>  <SCORE.INTRA.norm>
-0.0223505

>  <SCORE.RESTR>
0

>  <SCORE.RESTR.CAVITY>
0

>  <SCORE.RESTR.norm>
0

>  <SCORE.SYSTEM>
-21.1277

>  <SCORE.SYSTEM.CONST>
0

>  <SCORE.SYSTEM.DIHEDRAL>
4.33521

>  <SCORE.SYSTEM.POLAR>
-3.06083

>  <SCORE.SYSTEM.SOLV>
0.197455

>  <SCORE.SYSTEM.VDW>
-5.39326

>  <SCORE.SYSTEM.norm>
-1.9207

>  <SCORE.heavy>
11

>  <SCORE.norm>
-4.72316

$$$$
P151250459
 OpenBabel12072022113D
libRbt.so/2013.1/901 2013/11/27
 15 16  0  0  0  0  0  0  0  0999 V2000
  -31.6000   18.1724  -13.1146 C   0  0  0  0  0  0  0  0  0  0  0  0
  -30.5951   17.8782  -14.1579 C   0  0  0  0  0  0  0  0  0  0  0  0
  -30.6369   17.9159  -15.5355 C   0  0  0  0  0  0  0  0  0  0  0  0
  -29.3478   17.5129  -15.9499 C   0  0  0  0  0  0  0  0  0  0  0  0
  -28.5511   17.2355  -14.9278 N   0  0  0  0  0  0  0  0  0  0  0  0
  -29.3210   17.4728  -13.8523 N   0  0  0  0  0  0  0  0  0  0  0  0
  -28.9133   17.3319  -12.9344 H   0  0  0  0  0  0  0  0  0  0  0  0
  -29.0240   17.4455  -17.2539 N   0  0  0  0  0  0  0  0  0  0  0  0
  -30.1049   17.4168  -18.2420 C   0  0  0  0  0  0  0  0  0  0  0  0
  -31.1784   18.4964  -17.9129 C   0  0  1  0  0  0  0  0  0  0  0  0
  -31.7336   18.2519  -16.4844 C   0  0  0  0  0  0  0  0  0  0  0  0
  -30.5939   19.8507  -18.0506 N   0  0  0  0  0  0  0  0  0  0  0  0
  -28.1874   16.9217  -17.4863 H   0  0  0  0  0  0  0  0  0  0  0  0
  -30.0352   20.0166  -17.2053 H   0  0  0  0  0  0  0  0  0  0  0  0
  -31.3330   20.5508  -18.0254 H   0  0  0  0  0  0  0  0  0  0  0  0
  1  2  1  0  0  0  0
  2  3  2  0  0  0  0
  2  6  1  0  0  0  0
  3  4  1  0  0  0  0
  3 11  1  0  0  0  0
  4  5  2  0  0  0  0
  4  8  1  0  0  0  0
  5  6  1  0  0  0  0
  6  7  1  0  0  0  0
  8  9  1  0  0  0  0
  8 13  1  0  0  0  0
  9 10  1  0  0  0  0
 10 11  1  0  0  0  0
 10 12  1  1  0  0  0
 12 14  1  0  0  0  0
 12 15  1  0  0  0  0
M  END
>  <CHROM.0>
-57.71268187,-59.47020437,-63.42367616,-43.83952597,-54.51620431,-57.16552254
-65.14182418,-57.25219755,-169.07908750

>  <CHROM.1>
-78.01774025,-30.23290632,17.99337752,-15.96261879,1.50517890,-0.49492504
1.72704625

>  <Name>
P151250459

>  <RI>
0

>  <Rbt.Current_Directory>
/home/fstefaniak/projects/zuza/docking/adenine/4TZX

>  <Rbt.Executable>
rbdock ($Id: //depot/dev/client3/rdock/2013.1/src/exe/rbdock.cxx#4 $)

>  <Rbt.Library>
libRbt.so (2013.1, Build901 2013/11/27)

>  <Rbt.Parameter_File>
/home/fstefaniak/progs/rDock//data/scripts/dock_solv.prm

>  <Rbt.Receptor>
4tzx.prm

>  <SCORE>
-51.7633

>  <SCORE.INTER>
-30.5015

>  <SCORE.INTER.CONST>
1

>  <SCORE.INTER.POLAR>
-4.00927

>  <SCORE.INTER.ROT>
1

>  <SCORE.INTER.SOLV>
15.2633

>  <SCORE.INTER.VDW>
-16.3246

>  <SCORE.INTER.norm>
-2.77287

>  <SCORE.INTRA>
-0.277238

>  <SCORE.INTRA.DIHEDRAL>
-0.150283

>  <SCORE.INTRA.DIHEDRAL.0>
0.507822

>  <SCORE.INTRA.POLAR>
0.0267913

>  <SCORE.INTRA.POLAR.0>
-0.0267913

>  <SCORE.INTRA.REPUL>
0

>  <SCORE.INTRA.REPUL.0>
0

>  <SCORE.INTRA.SOLV>
-0.0589505

>  <SCORE.INTRA.SOLV.lig_0>
-15.484

>  <SCORE.INTRA.VDW>
-0.263711

>  <SCORE.INTRA.VDW.0>
0.225154

>  <SCORE.INTRA.norm>
-0.0252034

>  <SCORE.RESTR>
0

>  <SCORE.RESTR.CAVITY>
0

>  <SCORE.RESTR.norm>
0

>  <SCORE.SYSTEM>
-20.9846

>  <SCORE.SYSTEM.CONST>
0

>  <SCORE.SYSTEM.DIHEDRAL>
4.23466

>  <SCORE.SYSTEM.POLAR>
-3.07246

>  <SCORE.SYSTEM.SOLV>
0.214018

>  <SCORE.SYSTEM.VDW>
-5.23106

>  <SCORE.SYSTEM.norm>
-1.90769

>  <SCORE.heavy>
11

>  <SCORE.norm>
-4.70576

$$$$
P151391838
 OpenBabel12072022113D
libRbt.so/2013.1/901 2013/11/27
 17 17  0  0  0  0  0  0  0  0999 V2000
  -30.9744   16.4580  -15.4046 C   0  0  0  0  0  0  0  0  0  0  0  0
  -31.7537   17.6589  -15.9455 C   0  0  2  0  0  0  0  0  0  0  0  0
  -30.9505   18.1754  -17.1659 C   0  0  2  0  0  0  0  0  0  0  0  0
  -29.7344   17.2557  -17.2850 C   0  0  0  0  0  0  0  0  0  0  0  0
  -29.5225   16.6658  -15.8727 C   0  0  1  0  0  0  0  0  0  0  0  0
  -28.6867   17.5903  -14.9463 C   0  0  0  0  0  0  0  0  0  0  0  0
  -29.2106   17.7075  -13.5753 N   0  3  0  0  0  0  0  0  0  0  0  0
  -30.2217   17.4733  -13.5334 H   0  0  0  0  0  0  0  0  0  0  0  0
  -28.8027   16.9917  -12.9412 H   0  0  0  0  0  0  0  0  0  0  0  0
  -29.0768   18.6291  -13.1515 H   0  0  0  0  0  0  0  0  0  0  0  0
  -28.7914   15.3125  -15.9569 C   0  0  0  0  0  0  0  0  0  0  0  0
  -27.4772   15.5284  -16.4459 O   0  0  0  0  0  0  0  0  0  0  0  0
  -30.4697   19.5101  -16.9418 O   0  0  0  0  0  0  0  0  0  0  0  0
  -31.8179   18.6454  -14.9059 O   0  0  0  0  0  0  0  0  0  0  0  0
  -27.5543   15.8503  -17.3655 H   0  0  0  0  0  0  0  0  0  0  0  0
  -31.2540   20.0958  -17.0110 H   0  0  0  0  0  0  0  0  0  0  0  0
  -32.2496   18.1973  -14.1476 H   0  0  0  0  0  0  0  0  0  0  0  0
  1  2  1  0  0  0  0
  1  5  1  0  0  0  0
  2 14  1  1  0  0  0
  2  3  1  0  0  0  0
  3  4  1  0  0  0  0
  3 13  1  1  0  0  0
  4  5  1  0  0  0  0
  5  6  1  1  0  0  0
  5 11  1  0  0  0  0
  6  7  1  0  0  0  0
  7  8  1  0  0  0  0
  7  9  1  0  0  0  0
  7 10  1  0  0  0  0
 11 12  1  0  0  0  0
 12 15  1  0  0  0  0
 13 16  1  0  0  0  0
 14 17  1  0  0  0  0
M  CHG  1   7   1
M  END
>  <CHROM.0>
-58.55594156,-64.39902118,-67.35353719,-42.99615185,-55.75860052,-57.91499529
-65.11943371,-56.26050595,-167.80053658

>  <CHROM.1>
-57.80059650,-73.18277588,21.43086771,177.46489461,-22.32703244,-65.55746896
-29.92830928,17.36120944,-15.81537495,-3.11764202,0.72711365,-1.61094261

>  <Name>
P151391838

>  <RI>
0

>  <Rbt.Current_Directory>
/home/fstefaniak/projects/zuza/docking/adenine/4TZX

>  <Rbt.Executable>
rbdock ($Id: //depot/dev/client3/rdock/2013.1/src/exe/rbdock.cxx#4 $)

>  <Rbt.Library>
libRbt.so (2013.1, Build901 2013/11/27)

>  <Rbt.Parameter_File>
/home/fstefaniak/progs/rDock//data/scripts/dock_solv.prm

>  <Rbt.Receptor>
4tzx.prm

>  <SCORE>
-46.9278

>  <SCORE.INTER>
-32.9845

>  <SCORE.INTER.CONST>
1

>  <SCORE.INTER.POLAR>
-5.42257

>  <SCORE.INTER.ROT>
2

>  <SCORE.INTER.SOLV>
21.4585

>  <SCORE.INTER.VDW>
-16.0006

>  <SCORE.INTER.norm>
-2.99859

>  <SCORE.INTRA>
7.05207

>  <SCORE.INTRA.DIHEDRAL>
2.38148

>  <SCORE.INTRA.DIHEDRAL.0>
4.85615

>  <SCORE.INTRA.POLAR>
1.90521

>  <SCORE.INTRA.POLAR.0>
-1.90521

>  <SCORE.INTRA.REPUL>
0

>  <SCORE.INTRA.REPUL.0>
0

>  <SCORE.INTRA.SOLV>
-5.09326

>  <SCORE.INTRA.SOLV.lig_0>
-29.279

>  <SCORE.INTRA.VDW>
1.93025

>  <SCORE.INTRA.VDW.0>
0.000141062

>  <SCORE.INTRA.norm>
0.641097

>  <SCORE.RESTR>
0

>  <SCORE.RESTR.CAVITY>
0

>  <SCORE.RESTR.norm>
0

>  <SCORE.SYSTEM>
-20.9953

>  <SCORE.SYSTEM.CONST>
0

>  <SCORE.SYSTEM.DIHEDRAL>
4.70334

>  <SCORE.SYSTEM.POLAR>
-3.07559

>  <SCORE.SYSTEM.SOLV>
0.202737

>  <SCORE.SYSTEM.VDW>
-5.38029

>  <SCORE.SYSTEM.norm>
-1.90867

>  <SCORE.heavy>
11

>  <SCORE.norm>
-4.26616

$$$$
P151391838
 OpenBabel12072022113D
libRbt.so/2013.1/901 2013/11/27
 17 17  0  0  0  0  0  0  0  0999 V2000
  -30.9634   16.4389  -15.4192 C   0  0  0  0  0  0  0  0  0  0  0  0
  -31.7510   17.6413  -15.9447 C   0  0  2  0  0  0  0  0  0  0  0  0
  -30.9506   18.1800  -17.1573 C   0  0  2  0  0  0  0  0  0  0  0  0
  -29.7279   17.2707  -17.2877 C   0  0  0  0  0  0  0  0  0  0  0  0
  -29.5128   16.6634  -15.8832 C   0  0  1  0  0  0  0  0  0  0  0  0
  -28.6843   17.5815  -14.9438 C   0  0  0  0  0  0  0  0  0  0  0  0
  -29.2158   17.6844  -13.5746 N   0  3  0  0  0  0  0  0  0  0  0  0
  -29.0709   18.6347  -13.1810 H   0  0  0  0  0  0  0  0  0  0  0  0
  -30.2521   17.6040  -13.5532 H   0  0  0  0  0  0  0  0  0  0  0  0
  -28.8247   17.0026  -12.9196 H   0  0  0  0  0  0  0  0  0  0  0  0
  -28.7718   15.3167  -15.9850 C   0  0  0  0  0  0  0  0  0  0  0  0
  -27.4458   15.5529  -16.4308 O   0  0  0  0  0  0  0  0  0  0  0  0
  -30.4797   19.5150  -16.9149 O   0  0  0  0  0  0  0  0  0  0  0  0
  -31.8232   18.6133  -14.8920 O   0  0  0  0  0  0  0  0  0  0  0  0
  -27.4987   15.8925  -17.3457 H   0  0  0  0  0  0  0  0  0  0  0  0
  -31.2549   20.1030  -17.0423 H   0  0  0  0  0  0  0  0  0  0  0  0
  -32.2908   18.1654  -14.1552 H   0  0  0  0  0  0  0  0  0  0  0  0
  1  2  1  0  0  0  0
  1  5  1  0  0  0  0
  2 14  1  1  0  0  0
  2  3  1  0  0  0  0
  3  4  1  0  0  0  0
  3 13  1  1  0  0  0
  4  5  1  0  0  0  0
  5  6  1  1  0  0  0
  5 11  1  0  0  0  0
  6  7  1  0  0  0  0
  7  8  1  0  0  0  0
  7  9  1  0  0  0  0
  7 10  1  0  0  0  0
 11 12  1  0  0  0  0
 12 15  1  0  0  0  0
 13 16  1  0  0  0  0
 14 17  1  0  0  0  0
M  CHG  1   7   1
M  END
>  <CHROM.0>
-64.32495218,-63.80952183,62.18106092,-42.33997243,-58.64003600,-61.55271573
55.48151448,-173.59813267,-168.08191283

>  <CHROM.1>
-60.44325818,-77.26038485,20.99860684,179.23824038,-144.88952885,-66.06435441
-29.92303271,17.35799628,-15.81382700,-3.12161787,0.71820135,-1.60085205

>  <Name>
P151391838

>  <RI>
0

>  <Rbt.Current_Directory>
/home/fstefaniak/projects/zuza/docking/adenine/4TZX

>  <Rbt.Executable>
rbdock ($Id: //depot/dev/client3/rdock/2013.1/src/exe/rbdock.cxx#4 $)

>  <Rbt.Library>
libRbt.so (2013.1, Build901 2013/11/27)

>  <Rbt.Parameter_File>
/home/fstefaniak/progs/rDock//data/scripts/dock_solv.prm

>  <Rbt.Receptor>
4tzx.prm

>  <SCORE>
-46.5383

>  <SCORE.INTER>
-33.9311

>  <SCORE.INTER.CONST>
1

>  <SCORE.INTER.POLAR>
-5.52052

>  <SCORE.INTER.ROT>
2

>  <SCORE.INTER.SOLV>
21.3654

>  <SCORE.INTER.VDW>
-16.2742

>  <SCORE.INTER.norm>
-3.08465

>  <SCORE.INTRA>
6.43901

>  <SCORE.INTRA.DIHEDRAL>
2.77149

>  <SCORE.INTRA.DIHEDRAL.0>
4.85615

>  <SCORE.INTRA.POLAR>
1.8699

>  <SCORE.INTRA.POLAR.0>
-1.90521

>  <SCORE.INTRA.REPUL>
0

>  <SCORE.INTRA.REPUL.0>
0

>  <SCORE.INTRA.SOLV>
-5.08041

>  <SCORE.INTRA.SOLV.lig_0>
-29.279

>  <SCORE.INTRA.VDW>
1.23579

>  <SCORE.INTRA.VDW.0>
0.000141062

>  <SCORE.INTRA.norm>
0.585364

>  <SCORE.RESTR>
0

>  <SCORE.RESTR.CAVITY>
0

>  <SCORE.RESTR.norm>
0

>  <SCORE.SYSTEM>
-19.0461

>  <SCORE.SYSTEM.CONST>
0

>  <SCORE.SYSTEM.DIHEDRAL>
4.61272

>  <SCORE.SYSTEM.POLAR>
-3.01534

>  <SCORE.SYSTEM.SOLV>
-0.0660611

>  <SCORE.SYSTEM.VDW>
-4.16183

>  <SCORE.SYSTEM.norm>
-1.73147

>  <SCORE.heavy>
11

>  <SCORE.norm>
-4.23075

$$$$
P151391838
 OpenBabel12072022113D
libRbt.so/2013.1/901 2013/11/27
 17 17  0  0  0  0  0  0  0  0999 V2000
  -30.9794   16.4326  -15.4085 C   0  0  0  0  0  0  0  0  0  0  0  0
  -31.7625   17.6249  -15.9631 C   0  0  2  0  0  0  0  0  0  0  0  0
  -30.9453   18.1486  -17.1711 C   0  0  2  0  0  0  0  0  0  0  0  0
  -29.7181   17.2414  -17.2699 C   0  0  0  0  0  0  0  0  0  0  0  0
  -29.5226   16.6550  -15.8538 C   0  0  1  0  0  0  0  0  0  0  0  0
  -28.7111   17.5890  -14.9152 C   0  0  0  0  0  0  0  0  0  0  0  0
  -29.2480   17.6883  -13.5479 N   0  3  0  0  0  0  0  0  0  0  0  0
  -29.0949   18.6343  -13.1471 H   0  0  0  0  0  0  0  0  0  0  0  0
  -30.2852   17.6188  -13.5319 H   0  0  0  0  0  0  0  0  0  0  0  0
  -28.8673   16.9980  -12.8956 H   0  0  0  0  0  0  0  0  0  0  0  0
  -28.7762   15.3093  -15.9250 C   0  0  0  0  0  0  0  0  0  0  0  0
  -27.4890   15.5251  -16.4811 O   0  0  0  0  0  0  0  0  0  0  0  0
  -30.4820   19.4884  -16.9408 O   0  0  0  0  0  0  0  0  0  0  0  0
  -31.8534   18.6116  -14.9257 O   0  0  0  0  0  0  0  0  0  0  0  0
  -27.6132   15.8394  -17.3981 H   0  0  0  0  0  0  0  0  0  0  0  0
  -31.2673   20.0679  -17.0428 H   0  0  0  0  0  0  0  0  0  0  0  0
  -32.3483   18.1794  -14.1974 H   0  0  0  0  0  0  0  0  0  0  0  0
  1  2  1  0  0  0  0
  1  5  1  0  0  0  0
  2 14  1  1  0  0  0
  2  3  1  0  0  0  0
  3  4  1  0  0  0  0
  3 13  1  1  0  0  0
  4  5  1  0  0  0  0
  5  6  1  1  0  0  0
  5 11  1  0  0  0  0
  6  7  1  0  0  0  0
  7  8  1  0  0  0  0
  7  9  1  0  0  0  0
  7 10  1  0  0  0  0
 11 12  1  0  0  0  0
 12 15  1  0  0  0  0
 13 16  1  0  0  0  0
 14 17  1  0  0  0  0
M  CHG  1   7   1
M  END
>  <CHROM.0>
-60.85490067,-63.85811790,-62.12186091,49.00626232,-66.14621078,-59.52542742
-70.42860322,-64.57340772,-168.70355772

>  <CHROM.1>
-61.66654703,-74.41516993,22.18278990,173.43275778,-146.50383136,-63.88224467
-29.93949447,17.34489158,-15.81271454,-3.12119309,0.72162764,-1.60013651

>  <Name>
P151391838

>  <RI>
0

>  <Rbt.Current_Directory>
/home/fstefaniak/projects/zuza/docking/adenine/4TZX

>  <Rbt.Executable>
rbdock ($Id: //depot/dev/client3/rdock/2013.1/src/exe/rbdock.cxx#4 $)

>  <Rbt.Library>
libRbt.so (2013.1, Build901 2013/11/27)

>  <Rbt.Parameter_File>
/home/fstefaniak/progs/rDock//data/scripts/dock_solv.prm

>  <Rbt.Receptor>
4tzx.prm

>  <SCORE>
-45.7152

>  <SCORE.INTER>
-33.6043

>  <SCORE.INTER.CONST>
1

>  <SCORE.INTER.POLAR>
-5.47437

>  <SCORE.INTER.ROT>
2

>  <SCORE.INTER.SOLV>
21.4117

>  <SCORE.INTER.VDW>
-16.2255

>  <SCORE.INTER.norm>
-3.05494

>  <SCORE.INTRA>
5.89434

>  <SCORE.INTRA.DIHEDRAL>
1.97814

>  <SCORE.INTRA.DIHEDRAL.0>
4.85615

>  <SCORE.INTRA.POLAR>
1.86692

>  <SCORE.INTRA.POLAR.0>
-1.90521

>  <SCORE.INTRA.REPUL>
0

>  <SCORE.INTRA.REPUL.0>
0

>  <SCORE.INTRA.SOLV>
-5.1776

>  <SCORE.INTRA.SOLV.lig_0>
-29.279

>  <SCORE.INTRA.VDW>
1.14655

>  <SCORE.INTRA.VDW.0>
0.000141062

>  <SCORE.INTRA.norm>
0.535849

>  <SCORE.RESTR>
0

>  <SCORE.RESTR.CAVITY>
0

>  <SCORE.RESTR.norm>
0

>  <SCORE.SYSTEM>
-18.0052

>  <SCORE.SYSTEM.CONST>
0

>  <SCORE.SYSTEM.DIHEDRAL>
4.09332

>  <SCORE.SYSTEM.POLAR>
-2.47756

>  <SCORE.SYSTEM.SOLV>
0.111041

>  <SCORE.SYSTEM.VDW>
-5.14639

>  <SCORE.SYSTEM.norm>
-1.63684

>  <SCORE.heavy>
11

>  <SCORE.norm>
-4.15593

$$$$
P151705215
 OpenBabel12072022113D
libRbt.so/2013.1/901 2013/11/27
 12 13  0  0  0  0  0  0  0  0999 V2000
  -25.9705   13.7719  -16.5537 C   0  0  0  0  0  0  0  0  0  0  0  0
  -26.8403   14.9351  -16.5139 N   0  0  0  0  0  0  0  0  0  0  0  0
  -26.1795   16.2271  -16.4422 C   0  0  0  0  0  0  0  0  0  0  0  0
  -28.1907   14.7435  -16.1785 C   0  0  0  0  0  0  0  0  0  0  0  0
  -28.6503   13.5955  -16.0702 O   0  0  0  0  0  0  0  0  0  0  0  0
  -29.0908   15.9855  -15.9405 C   0  0  2  0  0  0  0  0  0  0  0  0
  -29.4697   16.9021  -17.1675 C   0  0  0  0  0  0  0  0  0  0  0  0
  -29.8215   17.8781  -16.0174 C   0  0  2  0  0  0  0  0  0  0  0  0
  -28.5398   17.3219  -15.3372 C   0  0  0  0  0  0  0  0  0  0  0  0
  -30.9433   17.1570  -15.2982 C   0  0  0  0  0  0  0  0  0  0  0  0
  -30.4097   15.7900  -15.2572 N   0  0  0  0  0  0  0  0  0  0  0  0
  -31.0287   15.1659  -15.7767 H   0  0  0  0  0  0  0  0  0  0  0  0
  1  2  1  0  0  0  0
  2  3  1  0  0  0  0
  2  4  1  0  0  0  0
  4  5  2  0  0  0  0
  6  4  1  6  0  0  0
  6  7  1  0  0  0  0
  6  9  1  0  0  0  0
  6 11  1  0  0  0  0
  8  7  1  6  0  0  0
  8  9  1  0  0  0  0
  8 10  1  0  0  0  0
 10 11  1  0  0  0  0
 11 12  1  0  0  0  0
M  END
>  <CHROM.0>
-60.58009734,-60.91023008,-66.11449295,-43.16680023,-55.22888062,-59.77569062
-62.51049017,-56.24652476,-168.68594276

>  <CHROM.1>
69.39240884,-28.52952945,15.80128827,-16.07493421,0.62459194,-0.22340733
3.11641098

>  <Name>
P151705215

>  <RI>
0

>  <Rbt.Current_Directory>
/home/fstefaniak/projects/zuza/docking/adenine/4TZX

>  <Rbt.Executable>
rbdock ($Id: //depot/dev/client3/rdock/2013.1/src/exe/rbdock.cxx#4 $)

>  <Rbt.Library>
libRbt.so (2013.1, Build901 2013/11/27)

>  <Rbt.Parameter_File>
/home/fstefaniak/progs/rDock//data/scripts/dock_solv.prm

>  <Rbt.Receptor>
4tzx.prm

>  <SCORE>
-40.4198

>  <SCORE.INTER>
-23.0845

>  <SCORE.INTER.CONST>
1

>  <SCORE.INTER.POLAR>
-2.05341

>  <SCORE.INTER.ROT>
1

>  <SCORE.INTER.SOLV>
9.64804

>  <SCORE.INTER.VDW>
-16.0277

>  <SCORE.INTER.norm>
-2.09859

>  <SCORE.INTRA>
3.70476

>  <SCORE.INTRA.DIHEDRAL>
0.594645

>  <SCORE.INTRA.DIHEDRAL.0>
0.454189

>  <SCORE.INTRA.POLAR>
0

>  <SCORE.INTRA.POLAR.0>
0

>  <SCORE.INTRA.REPUL>
0

>  <SCORE.INTRA.REPUL.0>
0

>  <SCORE.INTRA.SOLV>
-0.257628

>  <SCORE.INTRA.SOLV.lig_0>
-8.63405

>  <SCORE.INTRA.VDW>
3.53625

>  <SCORE.INTRA.VDW.0>
-0.877416

>  <SCORE.INTRA.norm>
0.336797

>  <SCORE.RESTR>
0

>  <SCORE.RESTR.CAVITY>
0

>  <SCORE.RESTR.norm>
0

>  <SCORE.SYSTEM>
-21.04

>  <SCORE.SYSTEM.CONST>
0

>  <SCORE.SYSTEM.DIHEDRAL>
4.33123

>  <SCORE.SYSTEM.POLAR>
-3.06171

>  <SCORE.SYSTEM.SOLV>
0.207298

>  <SCORE.SYSTEM.VDW>
-5.3338

>  <SCORE.SYSTEM.norm>
-1.91273

>  <SCORE.heavy>
11

>  <SCORE.norm>
-3.67453

$$$$
P151705215
 OpenBabel12072022113D
libRbt.so/2013.1/901 2013/11/27
 12 13  0  0  0  0  0  0  0  0999 V2000
  -25.9571   13.7713  -16.5214 C   0  0  0  0  0  0  0  0  0  0  0  0
  -26.8309   14.9320  -16.4965 N   0  0  0  0  0  0  0  0  0  0  0  0
  -26.1748   16.2264  -16.4268 C   0  0  0  0  0  0  0  0  0  0  0  0
  -28.1836   14.7381  -16.1721 C   0  0  0  0  0  0  0  0  0  0  0  0
  -28.6405   13.5893  -16.0609 O   0  0  0  0  0  0  0  0  0  0  0  0
  -29.0897   15.9786  -15.9498 C   0  0  2  0  0  0  0  0  0  0  0  0
  -29.4799   16.8731  -17.1897 C   0  0  0  0  0  0  0  0  0  0  0  0
  -29.8317   17.8656  -16.0538 C   0  0  2  0  0  0  0  0  0  0  0  0
  -28.5435   17.3279  -15.3711 C   0  0  0  0  0  0  0  0  0  0  0  0
  -30.9457   17.1499  -15.3174 C   0  0  0  0  0  0  0  0  0  0  0  0
  -30.4041   15.7868  -15.2568 N   0  0  0  0  0  0  0  0  0  0  0  0
  -31.0220   15.1508  -15.7630 H   0  0  0  0  0  0  0  0  0  0  0  0
  1  2  1  0  0  0  0
  2  3  1  0  0  0  0
  2  4  1  0  0  0  0
  4  5  2  0  0  0  0
  6  4  1  6  0  0  0
  6  7  1  0  0  0  0
  6  9  1  0  0  0  0
  6 11  1  0  0  0  0
  8  7  1  6  0  0  0
  8  9  1  0  0  0  0
  8 10  1  0  0  0  0
 10 11  1  0  0  0  0
 11 12  1  0  0  0  0
M  END
>  <CHROM.0>
-58.09672391,-61.74406236,-65.25260418,-43.50049342,-56.95500140,-62.55747966
-66.94295320,59.41069727,-168.63264807

>  <CHROM.1>
70.39105030,-28.52705760,15.79509252,-16.07777729,0.62100166,-0.21676982
3.10704837

>  <Name>
P151705215

>  <RI>
0

>  <Rbt.Current_Directory>
/home/fstefaniak/projects/zuza/docking/adenine/4TZX

>  <Rbt.Executable>
rbdock ($Id: //depot/dev/client3/rdock/2013.1/src/exe/rbdock.cxx#4 $)

>  <Rbt.Library>
libRbt.so (2013.1, Build901 2013/11/27)

>  <Rbt.Parameter_File>
/home/fstefaniak/progs/rDock//data/scripts/dock_solv.prm

>  <Rbt.Receptor>
4tzx.prm

>  <SCORE>
-39.5919

>  <SCORE.INTER>
-23.259

>  <SCORE.INTER.CONST>
1

>  <SCORE.INTER.POLAR>
-2.05231

>  <SCORE.INTER.ROT>
1

>  <SCORE.INTER.SOLV>
9.61543

>  <SCORE.INTER.VDW>
-16.1368

>  <SCORE.INTER.norm>
-2.11446

>  <SCORE.INTRA>
3.8982

>  <SCORE.INTRA.DIHEDRAL>
0.65841

>  <SCORE.INTRA.DIHEDRAL.0>
0.454189

>  <SCORE.INTRA.POLAR>
0

>  <SCORE.INTRA.POLAR.0>
0

>  <SCORE.INTRA.REPUL>
0

>  <SCORE.INTRA.REPUL.0>
0

>  <SCORE.INTRA.SOLV>
-0.256691

>  <SCORE.INTRA.SOLV.lig_0>
-8.63405

>  <SCORE.INTRA.VDW>
3.69734

>  <SCORE.INTRA.VDW.0>
-0.877416

>  <SCORE.INTRA.norm>
0.354382

>  <SCORE.RESTR>
0

>  <SCORE.RESTR.CAVITY>
0

>  <SCORE.RESTR.norm>
0

>  <SCORE.SYSTEM>
-20.2311

>  <SCORE.SYSTEM.CONST>
0

>  <SCORE.SYSTEM.DIHEDRAL>
4.36663

>  <SCORE.SYSTEM.POLAR>
-3.06063

>  <SCORE.SYSTEM.SOLV>
0.017903

>  <SCORE.SYSTEM.VDW>
-4.74681

>  <SCORE.SYSTEM.norm>
-1.83919

>  <SCORE.heavy>
11

>  <SCORE.norm>
-3.59927

$$$$
P151705215
 OpenBabel12072022113D
libRbt.so/2013.1/901 2013/11/27
 12 13  0  0  0  0  0  0  0  0999 V2000
  -25.9569   13.7901  -16.5531 C   0  0  0  0  0  0  0  0  0  0  0  0
  -26.8287   14.9517  -16.5101 N   0  0  0  0  0  0  0  0  0  0  0  0
  -26.1705   16.2435  -16.4151 C   0  0  0  0  0  0  0  0  0  0  0  0
  -28.1828   14.7545  -16.1935 C   0  0  0  0  0  0  0  0  0  0  0  0
  -28.6421   13.6048  -16.1044 O   0  0  0  0  0  0  0  0  0  0  0  0
  -29.0874   15.9926  -15.9519 C   0  0  2  0  0  0  0  0  0  0  0  0
  -29.4855   16.9005  -17.1793 C   0  0  0  0  0  0  0  0  0  0  0  0
  -29.8299   17.8805  -16.0305 C   0  0  2  0  0  0  0  0  0  0  0  0
  -28.5374   17.3354  -15.3619 C   0  0  0  0  0  0  0  0  0  0  0  0
  -30.9392   17.1568  -15.2948 C   0  0  0  0  0  0  0  0  0  0  0  0
  -30.3973   15.7932  -15.2526 N   0  0  0  0  0  0  0  0  0  0  0  0
  -31.0185   15.1628  -15.7617 H   0  0  0  0  0  0  0  0  0  0  0  0
  1  2  1  0  0  0  0
  2  3  1  0  0  0  0
  2  4  1  0  0  0  0
  4  5  2  0  0  0  0
  6  4  1  6  0  0  0
  6  7  1  0  0  0  0
  6  9  1  0  0  0  0
  6 11  1  0  0  0  0
  8  7  1  6  0  0  0
  8  9  1  0  0  0  0
  8 10  1  0  0  0  0
 10 11  1  0  0  0  0
 11 12  1  0  0  0  0
M  END
>  <CHROM.0>
-59.90773266,-62.48372099,-65.40921826,-43.64547970,-56.92610378,-61.93421139
-66.10647102,57.20526333,-168.59986811

>  <CHROM.1>
71.08025036,-28.52490484,15.81006450,-16.08109134,0.62253881,-0.21530176
3.12364382

>  <Name>
P151705215

>  <RI>
0

>  <Rbt.Current_Directory>
/home/fstefaniak/projects/zuza/docking/adenine/4TZX

>  <Rbt.Executable>
rbdock ($Id: //depot/dev/client3/rdock/2013.1/src/exe/rbdock.cxx#4 $)

>  <Rbt.Library>
libRbt.so (2013.1, Build901 2013/11/27)

>  <Rbt.Parameter_File>
/home/fstefaniak/progs/rDock//data/scripts/dock_solv.prm

>  <Rbt.Receptor>
4tzx.prm

>  <SCORE>
-39.5663

>  <SCORE.INTER>
-23.3514

>  <SCORE.INTER.CONST>
1

>  <SCORE.INTER.POLAR>
-2.05679

>  <SCORE.INTER.ROT>
1

>  <SCORE.INTER.SOLV>
9.62513

>  <SCORE.INTER.VDW>
-16.1867

>  <SCORE.INTER.norm>
-2.12285

>  <SCORE.INTRA>
4.0345

>  <SCORE.INTRA.DIHEDRAL>
0.70367

>  <SCORE.INTRA.DIHEDRAL.0>
0.454189

>  <SCORE.INTRA.POLAR>
0

>  <SCORE.INTRA.POLAR.0>
0

>  <SCORE.INTRA.REPUL>
0

>  <SCORE.INTRA.REPUL.0>
0

>  <SCORE.INTRA.SOLV>
-0.256037

>  <SCORE.INTRA.SOLV.lig_0>
-8.63405

>  <SCORE.INTRA.VDW>
3.81068

>  <SCORE.INTRA.VDW.0>
-0.877416

>  <SCORE.INTRA.norm>
0.366773

>  <SCORE.RESTR>
0

>  <SCORE.RESTR.CAVITY>
0

>  <SCORE.RESTR.norm>
0

>  <SCORE.SYSTEM>
-20.2494

>  <SCORE.SYSTEM.CONST>
0

>  <SCORE.SYSTEM.DIHEDRAL>
4.32868

>  <SCORE.SYSTEM.POLAR>
-3.04472

>  <SCORE.SYSTEM.SOLV>
0.0168446

>  <SCORE.SYSTEM.VDW>
-4.79908

>  <SCORE.SYSTEM.norm>
-1.84086

>  <SCORE.heavy>
11

>  <SCORE.norm>
-3.59694

$$$$
P152008234
 OpenBabel12072022113D
libRbt.so/2013.1/901 2013/11/27
 11 12  0  0  0  0  0  0  0  0999 V2000
  -31.0208   16.4977  -15.4475 C   0  0  0  0  0  0  0  0  0  0  0  0
  -31.0178   17.7379  -14.5857 C   0  0  1  0  0  0  0  0  0  0  0  0
  -29.7336   17.7729  -13.7529 C   0  0  0  0  0  0  0  0  0  0  0  0
  -28.5375   17.3911  -14.4825 O   0  0  0  0  0  0  0  0  0  0  0  0
  -28.5880   16.9152  -15.7508 C   0  0  0  0  0  0  0  0  0  0  0  0
  -27.5810   16.5337  -16.3430 O   0  0  0  0  0  0  0  0  0  0  0  0
  -29.9567   16.9142  -16.4317 C   0  0  2  0  0  0  0  0  0  0  0  0
  -30.3391   18.3602  -16.7187 C   0  0  0  0  0  0  0  0  0  0  0  0
  -30.9861   18.8394  -15.5206 O   0  0  0  0  0  0  0  0  0  0  0  0
  -29.9957   16.1057  -17.5955 O   0  0  0  0  0  0  0  0  0  0  0  0
  -29.2360   16.3787  -18.1498 H   0  0  0  0  0  0  0  0  0  0  0  0
  1  7  1  0  0  0  0
  2  1  1  6  0  0  0
  2  3  1  0  0  0  0
  2  9  1  0  0  0  0
  3  4  1  0  0  0  0
  4  5  1  0  0  0  0
  5  7  1  0  0  0  0
  5  6  2  0  0  0  0
  7  8  1  0  0  0  0
  7 10  1  6  0  0  0
  8  9  1  0  0  0  0
 10 11  1  0  0  0  0
M  END
>  <CHROM.0>
-57.21691831,80.10270707,-66.67721130,-42.31574661,-57.95051782,-61.10280743
-66.07795230,-57.21998151,-168.02460921

>  <CHROM.1>
-175.21477588,-29.74982777,17.30336664,-15.69349384,2.30488882,-0.35645276
1.17202258

>  <Name>
P152008234

>  <RI>
0

>  <Rbt.Current_Directory>
/home/fstefaniak/projects/zuza/docking/adenine/4TZX

>  <Rbt.Executable>
rbdock ($Id: //depot/dev/client3/rdock/2013.1/src/exe/rbdock.cxx#4 $)

>  <Rbt.Library>
libRbt.so (2013.1, Build901 2013/11/27)

>  <Rbt.Parameter_File>
/home/fstefaniak/progs/rDock//data/scripts/dock_solv.prm

>  <Rbt.Receptor>
4tzx.prm

>  <SCORE>
-44.4885

>  <SCORE.INTER>
-23.6257

>  <SCORE.INTER.CONST>
1

>  <SCORE.INTER.POLAR>
-3.71656

>  <SCORE.INTER.ROT>
0

>  <SCORE.INTER.SOLV>
9.77098

>  <SCORE.INTER.VDW>
-10.219

>  <SCORE.INTER.norm>
-2.36257

>  <SCORE.INTRA>
-1.8919

>  <SCORE.INTRA.DIHEDRAL>
-3.6015

>  <SCORE.INTRA.DIHEDRAL.0>
3.96966

>  <SCORE.INTRA.POLAR>
0

>  <SCORE.INTRA.POLAR.0>
0

>  <SCORE.INTRA.REPUL>
0

>  <SCORE.INTRA.REPUL.0>
0

>  <SCORE.INTRA.SOLV>
-0.0128206

>  <SCORE.INTRA.SOLV.lig_0>
-9.78642

>  <SCORE.INTRA.VDW>
-0.0847421

>  <SCORE.INTRA.VDW.0>
0.0854728

>  <SCORE.INTRA.norm>
-0.18919

>  <SCORE.RESTR>
0

>  <SCORE.RESTR.CAVITY>
0

>  <SCORE.RESTR.norm>
0

>  <SCORE.SYSTEM>
-18.9709

>  <SCORE.SYSTEM.CONST>
0

>  <SCORE.SYSTEM.DIHEDRAL>
6.39141

>  <SCORE.SYSTEM.POLAR>
-3.0846

>  <SCORE.SYSTEM.SOLV>
0.20362

>  <SCORE.SYSTEM.VDW>
-4.56363

>  <SCORE.SYSTEM.norm>
-1.89709

>  <SCORE.heavy>
10

>  <SCORE.norm>
-4.44885

$$$$
P152008234
 OpenBabel12072022113D
libRbt.so/2013.1/901 2013/11/27
 11 12  0  0  0  0  0  0  0  0999 V2000
  -31.0065   16.4837  -15.3900 C   0  0  0  0  0  0  0  0  0  0  0  0
  -31.0035   17.7338  -14.5427 C   0  0  1  0  0  0  0  0  0  0  0  0
  -29.7106   17.7883  -13.7246 C   0  0  0  0  0  0  0  0  0  0  0  0
  -28.5197   17.4067  -14.4626 O   0  0  0  0  0  0  0  0  0  0  0  0
  -28.5803   16.9156  -15.7247 C   0  0  0  0  0  0  0  0  0  0  0  0
  -27.5770   16.5347  -16.3234 O   0  0  0  0  0  0  0  0  0  0  0  0
  -29.9563   16.8964  -16.3905 C   0  0  2  0  0  0  0  0  0  0  0  0
  -30.3528   18.3361  -16.6902 C   0  0  0  0  0  0  0  0  0  0  0  0
  -30.9903   18.8245  -15.4907 O   0  0  0  0  0  0  0  0  0  0  0  0
  -30.0019   16.0741  -17.5443 O   0  0  0  0  0  0  0  0  0  0  0  0
  -29.2596   16.3566  -18.1171 H   0  0  0  0  0  0  0  0  0  0  0  0
  1  7  1  0  0  0  0
  2  1  1  6  0  0  0
  2  3  1  0  0  0  0
  2  9  1  0  0  0  0
  3  4  1  0  0  0  0
  4  5  1  0  0  0  0
  5  7  1  0  0  0  0
  5  6  2  0  0  0  0
  7  8  1  0  0  0  0
  7 10  1  6  0  0  0
  8  9  1  0  0  0  0
 10 11  1  0  0  0  0
M  END
>  <CHROM.0>
-64.79636502,80.51834618,-64.53084207,-42.53353606,-177.80640763,-175.04356772
-64.12148585,-60.12812364,-168.56696656

>  <CHROM.1>
-176.17470168,-29.74448329,17.29587431,-15.65924908,2.29719685,-0.34529702
1.15789810

>  <Name>
P152008234

>  <RI>
0

>  <Rbt.Current_Directory>
/home/fstefaniak/projects/zuza/docking/adenine/4TZX

>  <Rbt.Executable>
rbdock ($Id: //depot/dev/client3/rdock/2013.1/src/exe/rbdock.cxx#4 $)

>  <Rbt.Library>
libRbt.so (2013.1, Build901 2013/11/27)

>  <Rbt.Parameter_File>
/home/fstefaniak/progs/rDock//data/scripts/dock_solv.prm

>  <Rbt.Receptor>
4tzx.prm

>  <SCORE>
-44.4774

>  <SCORE.INTER>
-23.6526

>  <SCORE.INTER.CONST>
1

>  <SCORE.INTER.POLAR>
-3.75072

>  <SCORE.INTER.ROT>
0

>  <SCORE.INTER.SOLV>
9.75803

>  <SCORE.INTER.VDW>
-10.1187

>  <SCORE.INTER.norm>
-2.36526

>  <SCORE.INTRA>
-1.92559

>  <SCORE.INTRA.DIHEDRAL>
-3.67296

>  <SCORE.INTRA.DIHEDRAL.0>
3.96966

>  <SCORE.INTRA.POLAR>
0

>  <SCORE.INTRA.POLAR.0>
0

>  <SCORE.INTRA.REPUL>
0

>  <SCORE.INTRA.REPUL.0>
0

>  <SCORE.INTRA.SOLV>
-0.0135447

>  <SCORE.INTRA.SOLV.lig_0>
-9.78642

>  <SCORE.INTRA.VDW>
-0.0823364

>  <SCORE.INTRA.VDW.0>
0.0854728

>  <SCORE.INTRA.norm>
-0.192559

>  <SCORE.RESTR>
0

>  <SCORE.RESTR.CAVITY>
0

>  <SCORE.RESTR.norm>
0

>  <SCORE.SYSTEM>
-18.8992

>  <SCORE.SYSTEM.CONST>
0

>  <SCORE.SYSTEM.DIHEDRAL>
6.31784

>  <SCORE.SYSTEM.POLAR>
-3.03224

>  <SCORE.SYSTEM.SOLV>
-0.111309

>  <SCORE.SYSTEM.VDW>
-4.56087

>  <SCORE.SYSTEM.norm>
-1.88992

>  <SCORE.heavy>
10

>  <SCORE.norm>
-4.44774

$$$$
P152008234
 OpenBabel12072022113D
libRbt.so/2013.1/901 2013/11/27
 11 12  0  0  0  0  0  0  0  0999 V2000
  -31.0112   16.4696  -15.4699 C   0  0  0  0  0  0  0  0  0  0  0  0
  -31.0608   17.7233  -14.6292 C   0  0  1  0  0  0  0  0  0  0  0  0
  -29.8054   17.7978  -13.7561 C   0  0  0  0  0  0  0  0  0  0  0  0
  -28.5789   17.4286  -14.4402 O   0  0  0  0  0  0  0  0  0  0  0  0
  -28.5785   16.9315  -15.7013 C   0  0  0  0  0  0  0  0  0  0  0  0
  -27.5454   16.5611  -16.2542 O   0  0  0  0  0  0  0  0  0  0  0  0
  -29.9240   16.8917  -16.4259 C   0  0  2  0  0  0  0  0  0  0  0  0
  -30.3254   18.3249  -16.7493 C   0  0  0  0  0  0  0  0  0  0  0  0
  -31.0204   18.8100  -15.5809 O   0  0  0  0  0  0  0  0  0  0  0  0
  -29.9090   16.0641  -17.5767 O   0  0  0  0  0  0  0  0  0  0  0  0
  -29.1214   16.3246  -18.0969 H   0  0  0  0  0  0  0  0  0  0  0  0
  1  7  1  0  0  0  0
  2  1  1  6  0  0  0
  2  3  1  0  0  0  0
  2  9  1  0  0  0  0
  3  4  1  0  0  0  0
  4  5  1  0  0  0  0
  5  7  1  0  0  0  0
  5  6  2  0  0  0  0
  7  8  1  0  0  0  0
  7 10  1  6  0  0  0
  8  9  1  0  0  0  0
 10 11  1  0  0  0  0
M  END
>  <CHROM.0>
-59.48108133,-58.21218924,-67.09109503,-43.21442314,-56.09720893,-61.29706896
-66.68589388,-61.55981966,-168.71381757

>  <CHROM.1>
-173.49493105,-29.74895262,17.29674572,-15.68798653,2.34541627,-0.35058923
1.16923680

>  <Name>
P152008234

>  <RI>
0

>  <Rbt.Current_Directory>
/home/fstefaniak/projects/zuza/docking/adenine/4TZX

>  <Rbt.Executable>
rbdock ($Id: //depot/dev/client3/rdock/2013.1/src/exe/rbdock.cxx#4 $)

>  <Rbt.Library>
libRbt.so (2013.1, Build901 2013/11/27)

>  <Rbt.Parameter_File>
/home/fstefaniak/progs/rDock//data/scripts/dock_solv.prm

>  <Rbt.Receptor>
4tzx.prm

>  <SCORE>
-43.1549

>  <SCORE.INTER>
-20.2006

>  <SCORE.INTER.CONST>
1

>  <SCORE.INTER.POLAR>
-2.94685

>  <SCORE.INTER.ROT>
0

>  <SCORE.INTER.SOLV>
9.69298

>  <SCORE.INTER.VDW>
-10.4753

>  <SCORE.INTER.norm>
-2.02006

>  <SCORE.INTRA>
-1.81999

>  <SCORE.INTRA.DIHEDRAL>
-3.45317

>  <SCORE.INTRA.DIHEDRAL.0>
3.96966

>  <SCORE.INTRA.POLAR>
0

>  <SCORE.INTRA.POLAR.0>
0

>  <SCORE.INTRA.REPUL>
0

>  <SCORE.INTRA.REPUL.0>
0

>  <SCORE.INTRA.SOLV>
-0.0115618

>  <SCORE.INTRA.SOLV.lig_0>
-9.78642

>  <SCORE.INTRA.VDW>
-0.087621

>  <SCORE.INTRA.VDW.0>
0.0854728

>  <SCORE.INTRA.norm>
-0.181999

>  <SCORE.RESTR>
0

>  <SCORE.RESTR.CAVITY>
0

>  <SCORE.RESTR.norm>
0

>  <SCORE.SYSTEM>
-21.1343

>  <SCORE.SYSTEM.CONST>
0

>  <SCORE.SYSTEM.DIHEDRAL>
4.48476

>  <SCORE.SYSTEM.POLAR>
-3.05404

>  <SCORE.SYSTEM.SOLV>
0.187681

>  <SCORE.SYSTEM.VDW>
-5.46685

>  <SCORE.SYSTEM.norm>
-2.11343

>  <SCORE.heavy>
10

>  <SCORE.norm>
-4.31549

$$$$
P152069116
 OpenBabel12072022113D
libRbt.so/2013.1/901 2013/11/27
 12 12  0  0  0  0  0  0  0  0999 V2000
  -30.2336   17.8346  -18.9341 C   0  0  0  0  0  0  0  0  0  0  0  0
  -30.6170   19.2704  -18.6579 C   0  0  0  0  0  0  0  0  0  0  0  0
  -31.2930   19.3849  -17.3914 N   0  0  0  0  0  0  0  0  0  0  0  0
  -31.0291   18.6178  -16.3006 C   0  0  0  0  0  0  0  0  0  0  0  0
  -31.4819   18.9349  -15.2032 O   0  0  0  0  0  0  0  0  0  0  0  0
  -30.2451   17.5015  -16.4983 N   0  0  0  0  0  0  0  0  0  0  0  0
  -29.4789   17.3185  -17.7238 C   0  0  0  0  0  0  0  0  0  0  0  0
  -29.8739   16.6940  -15.3321 C   0  0  0  0  0  0  0  0  0  0  0  0
  -29.1715   17.5053  -14.2354 C   0  0  0  0  0  0  0  0  0  0  0  0
  -27.7873   17.7198  -14.4976 O   0  0  0  0  0  0  0  0  0  0  0  0
  -31.8104   20.2284  -17.1778 H   0  0  0  0  0  0  0  0  0  0  0  0
  -27.7070   18.2447  -15.3229 H   0  0  0  0  0  0  0  0  0  0  0  0
  1  2  1  0  0  0  0
  1  7  1  0  0  0  0
  2  3  1  0  0  0  0
  3  4  1  0  0  0  0
  3 11  1  0  0  0  0
  4  5  2  0  0  0  0
  4  6  1  0  0  0  0
  6  7  1  0  0  0  0
  6  8  1  0  0  0  0
  8  9  1  0  0  0  0
  9 10  1  0  0  0  0
 10 12  1  0  0  0  0
M  END
>  <CHROM.0>
-59.77681116,-62.45016496,-64.23577244,-42.38340641,-59.77679363,-57.57729690
-70.94423818,-60.22641969,-169.56392890

>  <CHROM.1>
-55.54342236,-80.62351214,62.39514989,-30.08987111,18.09352867,-16.43207389
-2.13827600,-0.62089228,1.54165444

>  <Name>
P152069116

>  <RI>
0

>  <Rbt.Current_Directory>
/home/fstefaniak/projects/zuza/docking/adenine/4TZX

>  <Rbt.Executable>
rbdock ($Id: //depot/dev/client3/rdock/2013.1/src/exe/rbdock.cxx#4 $)

>  <Rbt.Library>
libRbt.so (2013.1, Build901 2013/11/27)

>  <Rbt.Parameter_File>
/home/fstefaniak/progs/rDock//data/scripts/dock_solv.prm

>  <Rbt.Receptor>
4tzx.prm

>  <SCORE>
-49.9086

>  <SCORE.INTER>
-25.0303

>  <SCORE.INTER.CONST>
1

>  <SCORE.INTER.POLAR>
-3.84697

>  <SCORE.INTER.ROT>
2

>  <SCORE.INTER.SOLV>
13.4161

>  <SCORE.INTER.VDW>
-13.269

>  <SCORE.INTER.norm>
-2.50303

>  <SCORE.INTRA>
-3.8297

>  <SCORE.INTRA.DIHEDRAL>
-6.44334

>  <SCORE.INTRA.DIHEDRAL.0>
10.5491

>  <SCORE.INTRA.POLAR>
0.0274738

>  <SCORE.INTRA.POLAR.0>
-0.0274738

>  <SCORE.INTRA.REPUL>
0

>  <SCORE.INTRA.REPUL.0>
0

>  <SCORE.INTRA.SOLV>
-0.513972

>  <SCORE.INTRA.SOLV.lig_0>
-16.041

>  <SCORE.INTRA.VDW>
-0.444458

>  <SCORE.INTRA.VDW.0>
0.38247

>  <SCORE.INTRA.norm>
-0.38297

>  <SCORE.RESTR>
0

>  <SCORE.RESTR.CAVITY>
0

>  <SCORE.RESTR.norm>
0

>  <SCORE.SYSTEM>
-21.0486

>  <SCORE.SYSTEM.CONST>
0

>  <SCORE.SYSTEM.DIHEDRAL>
4.66163

>  <SCORE.SYSTEM.POLAR>
-3.05308

>  <SCORE.SYSTEM.SOLV>
0.187608

>  <SCORE.SYSTEM.VDW>
-5.47189

>  <SCORE.SYSTEM.norm>
-2.10486

>  <SCORE.heavy>
10

>  <SCORE.norm>
-4.99086

$$$$
P152069116
 OpenBabel12072022113D
libRbt.so/2013.1/901 2013/11/27
 12 12  0  0  0  0  0  0  0  0999 V2000
  -30.2350   17.8438  -18.9534 C   0  0  0  0  0  0  0  0  0  0  0  0
  -30.5806   19.2879  -18.6704 C   0  0  0  0  0  0  0  0  0  0  0  0
  -31.2619   19.4129  -17.4078 N   0  0  0  0  0  0  0  0  0  0  0  0
  -31.0267   18.6319  -16.3203 C   0  0  0  0  0  0  0  0  0  0  0  0
  -31.4781   18.9543  -15.2239 O   0  0  0  0  0  0  0  0  0  0  0  0
  -30.2724   17.4957  -16.5200 N   0  0  0  0  0  0  0  0  0  0  0  0
  -29.5031   17.2995  -17.7415 C   0  0  0  0  0  0  0  0  0  0  0  0
  -29.9315   16.6709  -15.3567 C   0  0  0  0  0  0  0  0  0  0  0  0
  -29.1843   17.4476  -14.2646 C   0  0  0  0  0  0  0  0  0  0  0  0
  -27.8039   17.6415  -14.5606 O   0  0  0  0  0  0  0  0  0  0  0  0
  -31.7574   20.2689  -17.1921 H   0  0  0  0  0  0  0  0  0  0  0  0
  -27.7349   18.2519  -15.3259 H   0  0  0  0  0  0  0  0  0  0  0  0
  1  2  1  0  0  0  0
  1  7  1  0  0  0  0
  2  3  1  0  0  0  0
  3  4  1  0  0  0  0
  3 11  1  0  0  0  0
  4  5  2  0  0  0  0
  4  6  1  0  0  0  0
  6  7  1  0  0  0  0
  6  8  1  0  0  0  0
  8  9  1  0  0  0  0
  9 10  1  0  0  0  0
 10 12  1  0  0  0  0
M  END
>  <CHROM.0>
-57.21095031,-59.68098024,-64.30567809,-43.00336835,-53.35302067,-58.12576389
-66.10912906,-57.80750507,-167.87127564

>  <CHROM.1>
-56.94629006,-78.35751100,67.81003957,-30.09634142,18.08354458,-16.45687526
-2.13669836,-0.64171194,1.55572746

>  <Name>
P152069116

>  <RI>
0

>  <Rbt.Current_Directory>
/home/fstefaniak/projects/zuza/docking/adenine/4TZX

>  <Rbt.Executable>
rbdock ($Id: //depot/dev/client3/rdock/2013.1/src/exe/rbdock.cxx#4 $)

>  <Rbt.Library>
libRbt.so (2013.1, Build901 2013/11/27)

>  <Rbt.Parameter_File>
/home/fstefaniak/progs/rDock//data/scripts/dock_solv.prm

>  <Rbt.Receptor>
4tzx.prm

>  <SCORE>
-49.8693

>  <SCORE.INTER>
-24.998

>  <SCORE.INTER.CONST>
1

>  <SCORE.INTER.POLAR>
-3.83439

>  <SCORE.INTER.ROT>
2

>  <SCORE.INTER.SOLV>
13.4434

>  <SCORE.INTER.VDW>
-13.2985

>  <SCORE.INTER.norm>
-2.4998

>  <SCORE.INTRA>
-3.91186

>  <SCORE.INTRA.DIHEDRAL>
-6.38004

>  <SCORE.INTRA.DIHEDRAL.0>
10.5491

>  <SCORE.INTRA.POLAR>
0.0274738

>  <SCORE.INTRA.POLAR.0>
-0.0274738

>  <SCORE.INTRA.REPUL>
0

>  <SCORE.INTRA.REPUL.0>
0

>  <SCORE.INTRA.SOLV>
-0.49587

>  <SCORE.INTRA.SOLV.lig_0>
-16.041

>  <SCORE.INTRA.VDW>
-0.567319

>  <SCORE.INTRA.VDW.0>
0.38247

>  <SCORE.INTRA.norm>
-0.391186

>  <SCORE.RESTR>
0

>  <SCORE.RESTR.CAVITY>
0

>  <SCORE.RESTR.norm>
0

>  <SCORE.SYSTEM>
-20.9595

>  <SCORE.SYSTEM.CONST>
0

>  <SCORE.SYSTEM.DIHEDRAL>
4.59072

>  <SCORE.SYSTEM.POLAR>
-3.09426

>  <SCORE.SYSTEM.SOLV>
0.210338

>  <SCORE.SYSTEM.VDW>
-5.25912

>  <SCORE.SYSTEM.norm>
-2.09595

>  <SCORE.heavy>
10

>  <SCORE.norm>
-4.98693

$$$$
P152069116
 OpenBabel12072022113D
libRbt.so/2013.1/901 2013/11/27
 12 12  0  0  0  0  0  0  0  0999 V2000
  -30.7750   19.3498  -18.1258 C   0  0  0  0  0  0  0  0  0  0  0  0
  -30.2839   18.1226  -18.8591 C   0  0  0  0  0  0  0  0  0  0  0  0
  -29.6999   17.1782  -17.9420 N   0  0  0  0  0  0  0  0  0  0  0  0
  -30.1165   16.9817  -16.6630 C   0  0  0  0  0  0  0  0  0  0  0  0
  -29.7224   16.0033  -16.0326 O   0  0  0  0  0  0  0  0  0  0  0  0
  -30.9820   17.9174  -16.1385 N   0  0  0  0  0  0  0  0  0  0  0  0
  -31.6650   18.8821  -16.9901 C   0  0  0  0  0  0  0  0  0  0  0  0
  -31.5147   17.6969  -14.7903 C   0  0  0  0  0  0  0  0  0  0  0  0
  -30.4804   17.9467  -13.6847 C   0  0  0  0  0  0  0  0  0  0  0  0
  -29.5165   16.9030  -13.5738 O   0  0  0  0  0  0  0  0  0  0  0  0
  -29.1253   16.4260  -18.3008 H   0  0  0  0  0  0  0  0  0  0  0  0
  -28.9587   17.0802  -12.7861 H   0  0  0  0  0  0  0  0  0  0  0  0
  1  2  1  0  0  0  0
  1  7  1  0  0  0  0
  2  3  1  0  0  0  0
  3  4  1  0  0  0  0
  3 11  1  0  0  0  0
  4  5  2  0  0  0  0
  4  6  1  0  0  0  0
  6  7  1  0  0  0  0
  6  8  1  0  0  0  0
  8  9  1  0  0  0  0
  9 10  1  0  0  0  0
 10 12  1  0  0  0  0
M  END
>  <CHROM.0>
-59.24623172,-55.91855430,-68.72098990,-42.39084619,-58.52665922,-62.33104999
-67.78076588,-56.94864445,-168.68610579

>  <CHROM.1>
73.79134196,-75.02360271,-173.49010211,-30.43721488,17.66092546,-16.22370055
1.71310651,0.90739641,-1.42154769

>  <Name>
P152069116

>  <RI>
0

>  <Rbt.Current_Directory>
/home/fstefaniak/projects/zuza/docking/adenine/4TZX

>  <Rbt.Executable>
rbdock ($Id: //depot/dev/client3/rdock/2013.1/src/exe/rbdock.cxx#4 $)

>  <Rbt.Library>
libRbt.so (2013.1, Build901 2013/11/27)

>  <Rbt.Parameter_File>
/home/fstefaniak/progs/rDock//data/scripts/dock_solv.prm

>  <Rbt.Receptor>
4tzx.prm

>  <SCORE>
-49.7763

>  <SCORE.INTER>
-24.2256

>  <SCORE.INTER.CONST>
1

>  <SCORE.INTER.POLAR>
-2.87026

>  <SCORE.INTER.ROT>
2

>  <SCORE.INTER.SOLV>
13.6245

>  <SCORE.INTER.VDW>
-16.0577

>  <SCORE.INTER.norm>
-2.42256

>  <SCORE.INTRA>
-4.54557

>  <SCORE.INTRA.DIHEDRAL>
-7.41339

>  <SCORE.INTRA.DIHEDRAL.0>
10.5491

>  <SCORE.INTRA.POLAR>
0.0274738

>  <SCORE.INTRA.POLAR.0>
-0.0274738

>  <SCORE.INTRA.REPUL>
0

>  <SCORE.INTRA.REPUL.0>
0

>  <SCORE.INTRA.SOLV>
-0.132057

>  <SCORE.INTRA.SOLV.lig_0>
-16.041

>  <SCORE.INTRA.VDW>
-0.866262

>  <SCORE.INTRA.VDW.0>
0.38247

>  <SCORE.INTRA.norm>
-0.454557

>  <SCORE.RESTR>
0

>  <SCORE.RESTR.CAVITY>
0

>  <SCORE.RESTR.norm>
0

>  <SCORE.SYSTEM>
-21.005

>  <SCORE.SYSTEM.CONST>
0

>  <SCORE.SYSTEM.DIHEDRAL>
4.84603

>  <SCORE.SYSTEM.POLAR>
-3.0622

>  <SCORE.SYSTEM.SOLV>
0.187035

>  <SCORE.SYSTEM.VDW>
-5.47372

>  <SCORE.SYSTEM.norm>
-2.1005

>  <SCORE.heavy>
10

>  <SCORE.norm>
-4.97763

$$$$
P152264608
 OpenBabel12072022113D
libRbt.so/2013.1/901 2013/11/27
 15 15  0  0  0  0  0  0  0  0999 V2000
  -31.7411   18.1146  -13.5733 C   0  0  0  0  0  0  0  0  0  0  0  0
  -30.6151   17.6231  -14.4146 C   0  0  0  0  0  0  0  0  0  0  0  0
  -29.3197   17.6671  -14.0863 C   0  0  0  0  0  0  0  0  0  0  0  0
  -28.5905   17.0709  -15.2155 C   0  0  0  0  0  0  0  0  0  0  0  0
  -27.3005   16.9454  -15.2107 N   0  0  0  0  0  0  0  0  0  0  0  0
  -26.8131   16.3543  -16.3845 N   0  0  0  0  0  0  0  0  0  0  0  0
  -25.7798   15.6029  -16.1640 C   0  0  0  0  0  0  0  0  0  0  0  0
  -25.1925   15.4301  -14.9540 N   0  0  0  0  0  0  0  0  0  0  0  0
  -25.1537   14.9238  -17.1478 N   0  0  0  0  0  0  0  0  0  0  0  0
  -29.5234   16.6513  -16.3175 C   0  0  0  0  0  0  0  0  0  0  0  0
  -30.8933   17.0138  -15.7568 C   0  0  0  0  0  0  0  0  0  0  0  0
  -24.3144   14.9403  -15.1264 H   0  0  0  0  0  0  0  0  0  0  0  0
  -25.0207   16.2885  -14.4531 H   0  0  0  0  0  0  0  0  0  0  0  0
  -24.1965   14.6821  -16.9233 H   0  0  0  0  0  0  0  0  0  0  0  0
  -25.2996   15.2409  -18.0930 H   0  0  0  0  0  0  0  0  0  0  0  0
  1  2  1  0  0  0  0
  2  3  2  0  0  0  0
  2 11  1  0  0  0  0
  3  4  1  0  0  0  0
  4  5  2  0  0  0  0
  4 10  1  0  0  0  0
  5  6  1  0  0  0  0
  6  7  2  0  0  0  0
  7  8  1  0  0  0  0
  7  9  1  0  0  0  0
  8 12  1  0  0  0  0
  8 13  1  0  0  0  0
  9 14  1  0  0  0  0
  9 15  1  0  0  0  0
 10 11  1  0  0  0  0
M  END
>  <CHROM.0>
-58.88286192,74.62149254,-63.73718467,-44.28596073,-58.09182164,-172.27152914
-66.49202189,-61.44024683,-169.35622112

>  <CHROM.1>
-145.53024500,-169.33915769,157.70851821,-28.18611791,16.63545140,-15.40542304
-2.73931287,0.26639961,-1.91973990

>  <Name>
P152264608

>  <RI>
0

>  <Rbt.Current_Directory>
/home/fstefaniak/projects/zuza/docking/adenine/4TZX

>  <Rbt.Executable>
rbdock ($Id: //depot/dev/client3/rdock/2013.1/src/exe/rbdock.cxx#4 $)

>  <Rbt.Library>
libRbt.so (2013.1, Build901 2013/11/27)

>  <Rbt.Parameter_File>
/home/fstefaniak/progs/rDock//data/scripts/dock_solv.prm

>  <Rbt.Receptor>
4tzx.prm

>  <SCORE>
-54.1517

>  <SCORE.INTER>
-36.8841

>  <SCORE.INTER.CONST>
1

>  <SCORE.INTER.POLAR>
-5.45762

>  <SCORE.INTER.ROT>
3

>  <SCORE.INTER.SOLV>
12.625

>  <SCORE.INTER.VDW>
-16.2057

>  <SCORE.INTER.norm>
-3.3531

>  <SCORE.INTRA>
2.03068

>  <SCORE.INTRA.DIHEDRAL>
0.948185

>  <SCORE.INTRA.DIHEDRAL.0>
1.01263

>  <SCORE.INTRA.POLAR>
0.225068

>  <SCORE.INTRA.POLAR.0>
-0.225068

>  <SCORE.INTRA.REPUL>
0

>  <SCORE.INTRA.REPUL.0>
0

>  <SCORE.INTRA.SOLV>
0.084204

>  <SCORE.INTRA.SOLV.lig_0>
-11.1852

>  <SCORE.INTRA.VDW>
0.749251

>  <SCORE.INTRA.VDW.0>
-0.506888

>  <SCORE.INTRA.norm>
0.184607

>  <SCORE.RESTR>
0

>  <SCORE.RESTR.CAVITY>
0

>  <SCORE.RESTR.norm>
0

>  <SCORE.SYSTEM>
-19.2982

>  <SCORE.SYSTEM.CONST>
0

>  <SCORE.SYSTEM.DIHEDRAL>
5.28146

>  <SCORE.SYSTEM.POLAR>
-3.02005

>  <SCORE.SYSTEM.SOLV>
0.0768364

>  <SCORE.SYSTEM.VDW>
-4.58475

>  <SCORE.SYSTEM.norm>
-1.75438

>  <SCORE.heavy>
11

>  <SCORE.norm>
-4.92288

$$$$
P152264608
 OpenBabel12072022113D
libRbt.so/2013.1/901 2013/11/27
 15 15  0  0  0  0  0  0  0  0999 V2000
  -31.7441   18.0985  -13.5854 C   0  0  0  0  0  0  0  0  0  0  0  0
  -30.6127   17.6127  -14.4229 C   0  0  0  0  0  0  0  0  0  0  0  0
  -29.3167   17.6914  -14.1039 C   0  0  0  0  0  0  0  0  0  0  0  0
  -28.5815   17.0862  -15.2244 C   0  0  0  0  0  0  0  0  0  0  0  0
  -27.2892   16.9882  -15.2251 N   0  0  0  0  0  0  0  0  0  0  0  0
  -26.7962   16.3819  -16.3888 N   0  0  0  0  0  0  0  0  0  0  0  0
  -25.7575   15.6420  -16.1552 C   0  0  0  0  0  0  0  0  0  0  0  0
  -25.1701   15.4931  -14.9420 N   0  0  0  0  0  0  0  0  0  0  0  0
  -25.1253   14.9518  -17.1274 N   0  0  0  0  0  0  0  0  0  0  0  0
  -29.5118   16.6227  -16.3111 C   0  0  0  0  0  0  0  0  0  0  0  0
  -30.8858   16.9682  -15.7497 C   0  0  0  0  0  0  0  0  0  0  0  0
  -24.3004   14.9849  -15.1026 H   0  0  0  0  0  0  0  0  0  0  0  0
  -24.9836   16.3622  -14.4653 H   0  0  0  0  0  0  0  0  0  0  0  0
  -24.1708   14.7094  -16.8927 H   0  0  0  0  0  0  0  0  0  0  0  0
  -25.2624   15.2604  -18.0767 H   0  0  0  0  0  0  0  0  0  0  0  0
  1  2  1  0  0  0  0
  2  3  2  0  0  0  0
  2 11  1  0  0  0  0
  3  4  1  0  0  0  0
  4  5  2  0  0  0  0
  4 10  1  0  0  0  0
  5  6  1  0  0  0  0
  6  7  2  0  0  0  0
  7  8  1  0  0  0  0
  7  9  1  0  0  0  0
  8 12  1  0  0  0  0
  8 13  1  0  0  0  0
  9 14  1  0  0  0  0
  9 15  1  0  0  0  0
 10 11  1  0  0  0  0
M  END
>  <CHROM.0>
-57.78357899,73.62022112,-63.33691270,-43.40507830,58.00030424,-173.30734098
-67.46990077,-60.92177331,-168.92917369

>  <CHROM.1>
-144.58244194,-170.83943316,158.53944756,-28.17371936,16.64855171,-15.40588558
-2.74050803,0.24941782,-1.93862556

>  <Name>
P152264608

>  <RI>
0

>  <Rbt.Current_Directory>
/home/fstefaniak/projects/zuza/docking/adenine/4TZX

>  <Rbt.Executable>
rbdock ($Id: //depot/dev/client3/rdock/2013.1/src/exe/rbdock.cxx#4 $)

>  <Rbt.Library>
libRbt.so (2013.1, Build901 2013/11/27)

>  <Rbt.Parameter_File>
/home/fstefaniak/progs/rDock//data/scripts/dock_solv.prm

>  <Rbt.Receptor>
4tzx.prm

>  <SCORE>
-53.3011

>  <SCORE.INTER>
-36.724

>  <SCORE.INTER.CONST>
1

>  <SCORE.INTER.POLAR>
-5.42336

>  <SCORE.INTER.ROT>
3

>  <SCORE.INTER.SOLV>
12.6799

>  <SCORE.INTER.VDW>
-16.2314

>  <SCORE.INTER.norm>
-3.33855

>  <SCORE.INTRA>
2.07897

>  <SCORE.INTRA.DIHEDRAL>
0.999051

>  <SCORE.INTRA.DIHEDRAL.0>
1.01263

>  <SCORE.INTRA.POLAR>
0.225068

>  <SCORE.INTRA.POLAR.0>
-0.225068

>  <SCORE.INTRA.REPUL>
0

>  <SCORE.INTRA.REPUL.0>
0

>  <SCORE.INTRA.SOLV>
0.090015

>  <SCORE.INTRA.SOLV.lig_0>
-11.1852

>  <SCORE.INTRA.VDW>
0.769202

>  <SCORE.INTRA.VDW.0>
-0.506888

>  <SCORE.INTRA.norm>
0.188997

>  <SCORE.RESTR>
0

>  <SCORE.RESTR.CAVITY>
0

>  <SCORE.RESTR.norm>
0

>  <SCORE.SYSTEM>
-18.656

>  <SCORE.SYSTEM.CONST>
0

>  <SCORE.SYSTEM.DIHEDRAL>
5.31198

>  <SCORE.SYSTEM.POLAR>
-3.0618

>  <SCORE.SYSTEM.SOLV>
-0.140515

>  <SCORE.SYSTEM.VDW>
-3.95516

>  <SCORE.SYSTEM.norm>
-1.696

>  <SCORE.heavy>
11

>  <SCORE.norm>
-4.84555

$$$$
P152264608
 OpenBabel12072022113D
libRbt.so/2013.1/901 2013/11/27
 15 15  0  0  0  0  0  0  0  0999 V2000
  -32.0165   18.7650  -17.5931 C   0  0  0  0  0  0  0  0  0  0  0  0
  -30.8676   18.0695  -16.9500 C   0  0  0  0  0  0  0  0  0  0  0  0
  -29.8170   17.5447  -17.5892 C   0  0  0  0  0  0  0  0  0  0  0  0
  -28.9489   16.9723  -16.5495 C   0  0  0  0  0  0  0  0  0  0  0  0
  -27.8250   16.3933  -16.8351 N   0  0  0  0  0  0  0  0  0  0  0  0
  -27.1598   15.9187  -15.6963 N   0  0  0  0  0  0  0  0  0  0  0  0
  -25.9158   15.6410  -15.9338 C   0  0  0  0  0  0  0  0  0  0  0  0
  -25.3172   15.7455  -17.1461 N   0  0  0  0  0  0  0  0  0  0  0  0
  -25.0801   15.1814  -14.9790 N   0  0  0  0  0  0  0  0  0  0  0  0
  -29.5355   17.1534  -15.1769 C   0  0  0  0  0  0  0  0  0  0  0  0
  -30.8261   17.9133  -15.4586 C   0  0  0  0  0  0  0  0  0  0  0  0
  -24.3121   15.7533  -16.9723 H   0  0  0  0  0  0  0  0  0  0  0  0
  -25.5546   15.0045  -17.7879 H   0  0  0  0  0  0  0  0  0  0  0  0
  -24.9257   15.8423  -14.2278 H   0  0  0  0  0  0  0  0  0  0  0  0
  -24.2565   14.6881  -15.2846 H   0  0  0  0  0  0  0  0  0  0  0  0
  1  2  1  0  0  0  0
  2  3  2  0  0  0  0
  2 11  1  0  0  0  0
  3  4  1  0  0  0  0
  4  5  2  0  0  0  0
  4 10  1  0  0  0  0
  5  6  1  0  0  0  0
  6  7  2  0  0  0  0
  7  8  1  0  0  0  0
  7  9  1  0  0  0  0
  8 12  1  0  0  0  0
  8 13  1  0  0  0  0
  9 14  1  0  0  0  0
  9 15  1  0  0  0  0
 10 11  1  0  0  0  0
M  END
>  <CHROM.0>
-55.96231978,76.81447580,-69.60745711,-42.35106364,-56.27837162,-174.25052156
-68.48482622,-56.71333212,-168.43231286

>  <CHROM.1>
-164.27670520,162.46654314,-63.70644721,-28.39604185,16.81159971,-16.34288760
-2.93968620,-0.42488021,1.70595035

>  <Name>
P152264608

>  <RI>
0

>  <Rbt.Current_Directory>
/home/fstefaniak/projects/zuza/docking/adenine/4TZX

>  <Rbt.Executable>
rbdock ($Id: //depot/dev/client3/rdock/2013.1/src/exe/rbdock.cxx#4 $)

>  <Rbt.Library>
libRbt.so (2013.1, Build901 2013/11/27)

>  <Rbt.Parameter_File>
/home/fstefaniak/progs/rDock//data/scripts/dock_solv.prm

>  <Rbt.Receptor>
4tzx.prm

>  <SCORE>
-52.4283

>  <SCORE.INTER>
-34.4244

>  <SCORE.INTER.CONST>
1

>  <SCORE.INTER.POLAR>
-4.66766

>  <SCORE.INTER.ROT>
3

>  <SCORE.INTER.SOLV>
12.3544

>  <SCORE.INTER.VDW>
-17.1089

>  <SCORE.INTER.norm>
-3.12949

>  <SCORE.INTRA>
1.06904

>  <SCORE.INTRA.DIHEDRAL>
0.187171

>  <SCORE.INTRA.DIHEDRAL.0>
1.01263

>  <SCORE.INTRA.POLAR>
0.225068

>  <SCORE.INTRA.POLAR.0>
-0.225068

>  <SCORE.INTRA.REPUL>
0

>  <SCORE.INTRA.REPUL.0>
0

>  <SCORE.INTRA.SOLV>
0.0359795

>  <SCORE.INTRA.SOLV.lig_0>
-11.1852

>  <SCORE.INTRA.VDW>
0.192236

>  <SCORE.INTRA.VDW.0>
-0.506888

>  <SCORE.INTRA.norm>
0.0971857

>  <SCORE.RESTR>
0

>  <SCORE.RESTR.CAVITY>
0

>  <SCORE.RESTR.norm>
0

>  <SCORE.SYSTEM>
-19.073

>  <SCORE.SYSTEM.CONST>
0

>  <SCORE.SYSTEM.DIHEDRAL>
6.4547

>  <SCORE.SYSTEM.POLAR>
-3.0923

>  <SCORE.SYSTEM.SOLV>
0.0783797

>  <SCORE.SYSTEM.VDW>
-4.58534

>  <SCORE.SYSTEM.norm>
-1.73391

>  <SCORE.heavy>
11

>  <SCORE.norm>
-4.76621

$$$$
P152612369
 OpenBabel12072022113D
libRbt.so/2013.1/901 2013/11/27
 14 14  0  0  0  0  0  0  0  0999 V2000
  -25.9470   11.9645  -14.9694 C   0  0  0  0  0  0  0  0  0  0  0  0
  -24.4620   11.9069  -14.9005 C   0  0  0  0  0  0  0  0  0  0  0  0
  -25.1275   12.5712  -16.0834 C   0  0  0  0  0  0  0  0  0  0  0  0
  -25.0625   13.9925  -16.1883 N   0  0  0  0  0  0  0  0  0  0  0  0
  -25.9746   14.8182  -16.7420 C   0  0  0  0  0  0  0  0  0  0  0  0
  -25.6834   16.1581  -16.8534 N   0  3  0  0  0  0  0  0  0  0  0  0
  -26.3863   16.8609  -17.0748 H   0  0  0  0  0  0  0  0  0  0  0  0
  -24.4097   16.6152  -16.4791 N   0  0  0  0  0  0  0  0  0  0  0  0
  -27.1649   14.3830  -17.1780 N   0  0  0  0  0  0  0  0  0  0  0  0
  -24.2726   14.4672  -15.7605 H   0  0  0  0  0  0  0  0  0  0  0  0
  -24.1202   17.3751  -17.1078 H   0  0  0  0  0  0  0  0  0  0  0  0
  -24.4515   17.0204  -15.5356 H   0  0  0  0  0  0  0  0  0  0  0  0
  -27.4485   13.4215  -17.0655 H   0  0  0  0  0  0  0  0  0  0  0  0
  -27.8259   15.0138  -17.6100 H   0  0  0  0  0  0  0  0  0  0  0  0
  1  2  1  0  0  0  0
  1  3  1  0  0  0  0
  2  3  1  0  0  0  0
  3  4  1  0  0  0  0
  4  5  1  0  0  0  0
  4 10  1  0  0  0  0
  5  6  2  0  0  0  0
  5  9  1  0  0  0  0
  6  7  1  0  0  0  0
  6  8  1  0  0  0  0
  8 11  1  0  0  0  0
  8 12  1  0  0  0  0
  9 13  1  0  0  0  0
  9 14  1  0  0  0  0
M  CHG  1   6   1
M  END
>  <CHROM.0>
-60.53716098,-67.31025003,-64.61420356,-43.24231716,-177.50532768,-58.59892005
-67.80437119,-59.74599144,-169.57250063

>  <CHROM.1>
-80.89464609,144.09244377,-25.48756385,14.13610880,-16.19196120,1.51827071
0.42791014,2.79553038

>  <Name>
P152612369

>  <RI>
0

>  <Rbt.Current_Directory>
/home/fstefaniak/projects/zuza/docking/adenine/4TZX

>  <Rbt.Executable>
rbdock ($Id: //depot/dev/client3/rdock/2013.1/src/exe/rbdock.cxx#4 $)

>  <Rbt.Library>
libRbt.so (2013.1, Build901 2013/11/27)

>  <Rbt.Parameter_File>
/home/fstefaniak/progs/rDock//data/scripts/dock_solv.prm

>  <Rbt.Receptor>
4tzx.prm

>  <SCORE>
-49.963

>  <SCORE.INTER>
-28.5604

>  <SCORE.INTER.CONST>
1

>  <SCORE.INTER.POLAR>
-5.37446

>  <SCORE.INTER.ROT>
2

>  <SCORE.INTER.SOLV>
13.0143

>  <SCORE.INTER.VDW>
-10.3968

>  <SCORE.INTER.norm>
-3.57005

>  <SCORE.INTRA>
-0.152457

>  <SCORE.INTRA.DIHEDRAL>
-0.21488

>  <SCORE.INTRA.DIHEDRAL.0>
3.2197

>  <SCORE.INTRA.POLAR>
-0.015678

>  <SCORE.INTRA.POLAR.0>
-0.0758958

>  <SCORE.INTRA.REPUL>
0

>  <SCORE.INTRA.REPUL.0>
0

>  <SCORE.INTRA.SOLV>
0.304872

>  <SCORE.INTRA.SOLV.lig_0>
-28.7305

>  <SCORE.INTRA.VDW>
-0.144148

>  <SCORE.INTRA.VDW.0>
-0.726309

>  <SCORE.INTRA.norm>
-0.0190572

>  <SCORE.RESTR>
0

>  <SCORE.RESTR.CAVITY>
0

>  <SCORE.RESTR.norm>
0

>  <SCORE.SYSTEM>
-21.2501

>  <SCORE.SYSTEM.CONST>
0

>  <SCORE.SYSTEM.DIHEDRAL>
4.53239

>  <SCORE.SYSTEM.POLAR>
-3.03387

>  <SCORE.SYSTEM.SOLV>
-0.000354461

>  <SCORE.SYSTEM.VDW>
-5.56454

>  <SCORE.SYSTEM.norm>
-2.65627

>  <SCORE.heavy>
8

>  <SCORE.norm>
-6.24537

$$$$
P152612369
 OpenBabel12072022113D
libRbt.so/2013.1/901 2013/11/27
 14 14  0  0  0  0  0  0  0  0999 V2000
  -25.6288   11.8412  -15.1941 C   0  0  0  0  0  0  0  0  0  0  0  0
  -24.5997   11.4952  -16.2112 C   0  0  0  0  0  0  0  0  0  0  0  0
  -25.7101   12.4545  -16.5717 C   0  0  0  0  0  0  0  0  0  0  0  0
  -25.3896   13.8363  -16.7248 N   0  0  0  0  0  0  0  0  0  0  0  0
  -26.2464   14.8766  -16.7874 C   0  0  0  0  0  0  0  0  0  0  0  0
  -25.7543   16.1334  -17.0535 N   0  3  0  0  0  0  0  0  0  0  0  0
  -26.3026   16.9816  -16.9234 H   0  0  0  0  0  0  0  0  0  0  0  0
  -24.3904   16.2859  -17.3493 N   0  0  0  0  0  0  0  0  0  0  0  0
  -27.5639   14.7339  -16.5864 N   0  0  0  0  0  0  0  0  0  0  0  0
  -24.4085   14.0999  -16.7409 H   0  0  0  0  0  0  0  0  0  0  0  0
  -24.1870   17.2780  -17.5254 H   0  0  0  0  0  0  0  0  0  0  0  0
  -23.8274   16.0157  -16.5331 H   0  0  0  0  0  0  0  0  0  0  0  0
  -27.9651   13.8443  -16.3308 H   0  0  0  0  0  0  0  0  0  0  0  0
  -28.1922   15.5221  -16.6593 H   0  0  0  0  0  0  0  0  0  0  0  0
  1  2  1  0  0  0  0
  1  3  1  0  0  0  0
  2  3  1  0  0  0  0
  3  4  1  0  0  0  0
  4  5  1  0  0  0  0
  4 10  1  0  0  0  0
  5  6  2  0  0  0  0
  5  9  1  0  0  0  0
  6  7  1  0  0  0  0
  6  8  1  0  0  0  0
  8 11  1  0  0  0  0
  8 12  1  0  0  0  0
  9 13  1  0  0  0  0
  9 14  1  0  0  0  0
M  CHG  1   6   1
M  END
>  <CHROM.0>
-60.93114838,-62.33087681,-64.97747171,-43.72939029,62.04450824,-64.26214261
-68.92028992,-171.46601426,-168.82070368

>  <CHROM.1>
-98.07626017,179.80433461,-25.65767587,14.04079437,-16.56729899,1.50057087
-0.13230377,2.85697365

>  <Name>
P152612369

>  <RI>
0

>  <Rbt.Current_Directory>
/home/fstefaniak/projects/zuza/docking/adenine/4TZX

>  <Rbt.Executable>
rbdock ($Id: //depot/dev/client3/rdock/2013.1/src/exe/rbdock.cxx#4 $)

>  <Rbt.Library>
libRbt.so (2013.1, Build901 2013/11/27)

>  <Rbt.Parameter_File>
/home/fstefaniak/progs/rDock//data/scripts/dock_solv.prm

>  <Rbt.Receptor>
4tzx.prm

>  <SCORE>
-49.7328

>  <SCORE.INTER>
-29.6429

>  <SCORE.INTER.CONST>
1

>  <SCORE.INTER.POLAR>
-5.0782

>  <SCORE.INTER.ROT>
2

>  <SCORE.INTER.SOLV>
13.0933

>  <SCORE.INTER.VDW>
-12.1324

>  <SCORE.INTER.norm>
-3.70536

>  <SCORE.INTRA>
0.189113

>  <SCORE.INTRA.DIHEDRAL>
-0.127

>  <SCORE.INTRA.DIHEDRAL.0>
3.2197

>  <SCORE.INTRA.POLAR>
0.0219362

>  <SCORE.INTRA.POLAR.0>
-0.0758958

>  <SCORE.INTRA.REPUL>
0

>  <SCORE.INTRA.REPUL.0>
0

>  <SCORE.INTRA.SOLV>
0.257299

>  <SCORE.INTRA.SOLV.lig_0>
-28.7305

>  <SCORE.INTRA.VDW>
0.0493801

>  <SCORE.INTRA.VDW.0>
-0.726309

>  <SCORE.INTRA.norm>
0.0236391

>  <SCORE.RESTR>
0

>  <SCORE.RESTR.CAVITY>
0

>  <SCORE.RESTR.norm>
0

>  <SCORE.SYSTEM>
-20.279

>  <SCORE.SYSTEM.CONST>
0

>  <SCORE.SYSTEM.DIHEDRAL>
4.79457

>  <SCORE.SYSTEM.POLAR>
-3.03316

>  <SCORE.SYSTEM.SOLV>
-0.180218

>  <SCORE.SYSTEM.VDW>
-4.94693

>  <SCORE.SYSTEM.norm>
-2.53488

>  <SCORE.heavy>
8

>  <SCORE.norm>
-6.2166

$$$$
P152612369
 OpenBabel12072022113D
libRbt.so/2013.1/901 2013/11/27
 14 14  0  0  0  0  0  0  0  0999 V2000
  -29.7575   16.9954  -17.0141 C   0  0  0  0  0  0  0  0  0  0  0  0
  -29.6232   17.0633  -15.5340 C   0  0  0  0  0  0  0  0  0  0  0  0
  -28.7995   16.0631  -16.3115 C   0  0  0  0  0  0  0  0  0  0  0  0
  -27.3982   16.2956  -16.4443 N   0  0  0  0  0  0  0  0  0  0  0  0
  -26.4067   15.3812  -16.4114 C   0  0  0  0  0  0  0  0  0  0  0  0
  -25.1000   15.8100  -16.4425 N   0  3  0  0  0  0  0  0  0  0  0  0
  -24.3159   15.1842  -16.6170 H   0  0  0  0  0  0  0  0  0  0  0  0
  -24.8307   17.1876  -16.4088 N   0  0  0  0  0  0  0  0  0  0  0  0
  -26.6474   14.0636  -16.3624 N   0  0  0  0  0  0  0  0  0  0  0  0
  -27.0876   17.2437  -16.6366 H   0  0  0  0  0  0  0  0  0  0  0  0
  -24.5665   17.4616  -15.4539 H   0  0  0  0  0  0  0  0  0  0  0  0
  -24.0195   17.3958  -17.0044 H   0  0  0  0  0  0  0  0  0  0  0  0
  -27.5868   13.6974  -16.3968 H   0  0  0  0  0  0  0  0  0  0  0  0
  -25.8907   13.3953  -16.3162 H   0  0  0  0  0  0  0  0  0  0  0  0
  1  2  1  0  0  0  0
  1  3  1  0  0  0  0
  2  3  1  0  0  0  0
  3  4  1  0  0  0  0
  4  5  1  0  0  0  0
  4 10  1  0  0  0  0
  5  6  2  0  0  0  0
  5  9  1  0  0  0  0
  6  7  1  0  0  0  0
  6  8  1  0  0  0  0
  8 11  1  0  0  0  0
  8 12  1  0  0  0  0
  9 13  1  0  0  0  0
  9 14  1  0  0  0  0
M  CHG  1   6   1
M  END
>  <CHROM.0>
-59.32105110,-61.64986944,-64.52095275,-40.56282706,-57.87363569,-66.64280300
-66.89762138,-173.84328408,-167.71504595

>  <CHROM.1>
-150.20421337,100.06365230,-27.23286153,16.10093064,-16.36777676,-2.93556252
-0.02558183,-3.12666040

>  <Name>
P152612369

>  <RI>
0

>  <Rbt.Current_Directory>
/home/fstefaniak/projects/zuza/docking/adenine/4TZX

>  <Rbt.Executable>
rbdock ($Id: //depot/dev/client3/rdock/2013.1/src/exe/rbdock.cxx#4 $)

>  <Rbt.Library>
libRbt.so (2013.1, Build901 2013/11/27)

>  <Rbt.Parameter_File>
/home/fstefaniak/progs/rDock//data/scripts/dock_solv.prm

>  <Rbt.Receptor>
4tzx.prm

>  <SCORE>
-48.5333

>  <SCORE.INTER>
-27.5471

>  <SCORE.INTER.CONST>
1

>  <SCORE.INTER.POLAR>
-4.10984

>  <SCORE.INTER.ROT>
2

>  <SCORE.INTER.SOLV>
12.2602

>  <SCORE.INTER.VDW>
-13.6853

>  <SCORE.INTER.norm>
-3.44339

>  <SCORE.INTRA>
0.0184522

>  <SCORE.INTRA.DIHEDRAL>
0.207002

>  <SCORE.INTRA.DIHEDRAL.0>
3.2197

>  <SCORE.INTRA.POLAR>
-0.015678

>  <SCORE.INTRA.POLAR.0>
-0.0758958

>  <SCORE.INTRA.REPUL>
0

>  <SCORE.INTRA.REPUL.0>
0

>  <SCORE.INTRA.SOLV>
-0.0756537

>  <SCORE.INTRA.SOLV.lig_0>
-28.7305

>  <SCORE.INTRA.VDW>
0.00608322

>  <SCORE.INTRA.VDW.0>
-0.726309

>  <SCORE.INTRA.norm>
0.00230653

>  <SCORE.RESTR>
0

>  <SCORE.RESTR.CAVITY>
0

>  <SCORE.RESTR.norm>
0

>  <SCORE.SYSTEM>
-21.0047

>  <SCORE.SYSTEM.CONST>
0

>  <SCORE.SYSTEM.DIHEDRAL>
5.15951

>  <SCORE.SYSTEM.POLAR>
-3.0897

>  <SCORE.SYSTEM.SOLV>
0.0497135

>  <SCORE.SYSTEM.VDW>
-5.44053

>  <SCORE.SYSTEM.norm>
-2.62558

>  <SCORE.heavy>
8

>  <SCORE.norm>
-6.06667

$$$$
P152621411
 OpenBabel12072022113D
libRbt.so/2013.1/901 2013/11/27
 16 16  0  0  0  0  0  0  0  0999 V2000
  -28.2568   11.8180  -15.9375 C   0  0  0  0  0  0  0  0  0  0  0  0
  -27.9203   13.2732  -16.1483 C   0  0  0  0  0  0  0  0  0  0  0  0
  -28.9586   14.2140  -16.1235 C   0  0  0  0  0  0  0  0  0  0  0  0
  -28.6924   15.5655  -16.2950 C   0  0  0  0  0  0  0  0  0  0  0  0
  -27.3806   15.9944  -16.4869 C   0  0  0  0  0  0  0  0  0  0  0  0
  -26.3053   15.0834  -16.5338 C   0  0  0  0  0  0  0  0  0  0  0  0
  -26.5815   13.7027  -16.3457 C   0  0  0  0  0  0  0  0  0  0  0  0
  -25.4774   12.6861  -16.3600 C   0  0  0  0  0  0  0  0  0  0  0  0
  -25.7686   11.5542  -16.8842 O   0  0  0  0  0  0  0  0  0  0  0  0
  -24.3073   13.0670  -16.0789 O   0  5  0  0  0  0  0  0  0  0  0  0
  -25.0022   15.6609  -16.6341 N   0  0  0  0  0  0  0  0  0  0  0  0
  -24.7475   17.0802  -16.3795 N   0  3  0  0  0  0  0  0  0  0  0  0
  -23.9411   17.4119  -16.9355 H   0  0  0  0  0  0  0  0  0  0  0  0
  -25.4788   17.6563  -16.8943 H   0  0  0  0  0  0  0  0  0  0  0  0
  -24.7081   17.3821  -15.4081 H   0  0  0  0  0  0  0  0  0  0  0  0
  -24.2734   14.9902  -16.3793 H   0  0  0  0  0  0  0  0  0  0  0  0
  1  2  1  0  0  0  0
  2  3  2  0  0  0  0
  2  7  1  0  0  0  0
  3  4  1  0  0  0  0
  4  5  2  0  0  0  0
  5  6  1  0  0  0  0
  6  7  2  0  0  0  0
  6 11  1  0  0  0  0
  7  8  1  0  0  0  0
  8  9  2  0  0  0  0
  8 10  1  0  0  0  0
 11 12  1  0  0  0  0
 11 16  1  0  0  0  0
 12 13  1  0  0  0  0
 12 14  1  0  0  0  0
 12 15  1  0  0  0  0
M  CHG  2  10  -1  12   1
M  END
>  <CHROM.0>
-60.13597320,-62.69062611,-65.63451195,-42.59076463,-52.23616819,-172.00445763
-67.04468274,-60.03594114,-168.75006500

>  <CHROM.1>
14.42251801,35.60335582,-150.82468168,-26.51127361,14.15125346,-16.35355877
1.97612153,-0.06290736,3.12605397

>  <Name>
P152621411

>  <RI>
0

>  <Rbt.Current_Directory>
/home/fstefaniak/projects/zuza/docking/adenine/4TZX

>  <Rbt.Executable>
rbdock ($Id: //depot/dev/client3/rdock/2013.1/src/exe/rbdock.cxx#4 $)

>  <Rbt.Library>
libRbt.so (2013.1, Build901 2013/11/27)

>  <Rbt.Parameter_File>
/home/fstefaniak/progs/rDock//data/scripts/dock_solv.prm

>  <Rbt.Receptor>
4tzx.prm

>  <SCORE>
-52.0684

>  <SCORE.INTER>
-24.2174

>  <SCORE.INTER.CONST>
1

>  <SCORE.INTER.POLAR>
-4.30106

>  <SCORE.INTER.ROT>
2

>  <SCORE.INTER.SOLV>
21.1436

>  <SCORE.INTER.VDW>
-13.7893

>  <SCORE.INTER.norm>
-2.01812

>  <SCORE.INTRA>
-7.18744

>  <SCORE.INTRA.DIHEDRAL>
-5.88628

>  <SCORE.INTRA.DIHEDRAL.0>
9.93661

>  <SCORE.INTRA.POLAR>
-0.062581

>  <SCORE.INTRA.POLAR.0>
-0.063604

>  <SCORE.INTRA.REPUL>
0

>  <SCORE.INTRA.REPUL.0>
0

>  <SCORE.INTRA.SOLV>
-6.84693

>  <SCORE.INTRA.SOLV.lig_0>
-45.1123

>  <SCORE.INTRA.VDW>
-0.608061

>  <SCORE.INTRA.VDW.0>
1.61851

>  <SCORE.INTRA.norm>
-0.598954

>  <SCORE.RESTR>
0.196003

>  <SCORE.RESTR.CAVITY>
0.196003

>  <SCORE.RESTR.norm>
0.0163336

>  <SCORE.SYSTEM>
-20.8595

>  <SCORE.SYSTEM.CONST>
0

>  <SCORE.SYSTEM.DIHEDRAL>
4.99762

>  <SCORE.SYSTEM.POLAR>
-3.07465

>  <SCORE.SYSTEM.SOLV>
0.0750371

>  <SCORE.SYSTEM.VDW>
-5.34839

>  <SCORE.SYSTEM.norm>
-1.7383

>  <SCORE.heavy>
12

>  <SCORE.norm>
-4.33903

$$$$
P152621411
 OpenBabel12072022113D
libRbt.so/2013.1/901 2013/11/27
 16 16  0  0  0  0  0  0  0  0999 V2000
  -28.1035   11.7586  -15.8642 C   0  0  0  0  0  0  0  0  0  0  0  0
  -27.8444   13.2255  -16.1012 C   0  0  0  0  0  0  0  0  0  0  0  0
  -28.9361   14.1032  -16.1432 C   0  0  0  0  0  0  0  0  0  0  0  0
  -28.7426   15.4635  -16.3408 C   0  0  0  0  0  0  0  0  0  0  0  0
  -27.4514   15.9648  -16.4922 C   0  0  0  0  0  0  0  0  0  0  0  0
  -26.3236   15.1186  -16.4715 C   0  0  0  0  0  0  0  0  0  0  0  0
  -26.5260   13.7290  -16.2569 C   0  0  0  0  0  0  0  0  0  0  0  0
  -25.3647   12.7800  -16.1998 C   0  0  0  0  0  0  0  0  0  0  0  0
  -24.3074   13.1547  -16.8183 O   0  0  0  0  0  0  0  0  0  0  0  0
  -25.4164   11.8168  -15.3856 O   0  5  0  0  0  0  0  0  0  0  0  0
  -25.0535   15.7700  -16.5359 N   0  0  0  0  0  0  0  0  0  0  0  0
  -24.9034   17.2198  -16.3956 N   0  3  0  0  0  0  0  0  0  0  0  0
  -24.6238   17.4663  -15.4309 H   0  0  0  0  0  0  0  0  0  0  0  0
  -23.9890   17.5144  -16.8524 H   0  0  0  0  0  0  0  0  0  0  0  0
  -25.6572   17.8052  -16.7498 H   0  0  0  0  0  0  0  0  0  0  0  0
  -24.3066   15.1737  -16.1720 H   0  0  0  0  0  0  0  0  0  0  0  0
  1  2  1  0  0  0  0
  2  3  2  0  0  0  0
  2  7  1  0  0  0  0
  3  4  1  0  0  0  0
  4  5  2  0  0  0  0
  5  6  1  0  0  0  0
  6  7  2  0  0  0  0
  6 11  1  0  0  0  0
  7  8  1  0  0  0  0
  8  9  2  0  0  0  0
  8 10  1  0  0  0  0
 11 12  1  0  0  0  0
 11 16  1  0  0  0  0
 12 13  1  0  0  0  0
 12 14  1  0  0  0  0
 12 15  1  0  0  0  0
M  CHG  2  10  -1  12   1
M  END
>  <CHROM.0>
-54.80543998,-169.35066169,-62.73549391,-41.11736341,-53.93176079,-55.47498939
-67.53603424,-58.83876465,-167.03178571

>  <CHROM.1>
10.38548831,154.75518229,98.53497410,-26.47344250,14.19251733,-16.24405188
1.92401145,-0.04586713,3.01732536

>  <Name>
P152621411

>  <RI>
0

>  <Rbt.Current_Directory>
/home/fstefaniak/projects/zuza/docking/adenine/4TZX

>  <Rbt.Executable>
rbdock ($Id: //depot/dev/client3/rdock/2013.1/src/exe/rbdock.cxx#4 $)

>  <Rbt.Library>
libRbt.so (2013.1, Build901 2013/11/27)

>  <Rbt.Parameter_File>
/home/fstefaniak/progs/rDock//data/scripts/dock_solv.prm

>  <Rbt.Receptor>
4tzx.prm

>  <SCORE>
-51.7268

>  <SCORE.INTER>
-24.2299

>  <SCORE.INTER.CONST>
1

>  <SCORE.INTER.POLAR>
-4.47146

>  <SCORE.INTER.ROT>
2

>  <SCORE.INTER.SOLV>
21.7229

>  <SCORE.INTER.VDW>
-13.4227

>  <SCORE.INTER.norm>
-2.01916

>  <SCORE.INTRA>
-7.13163

>  <SCORE.INTRA.DIHEDRAL>
-5.4438

>  <SCORE.INTRA.DIHEDRAL.0>
9.93661

>  <SCORE.INTRA.POLAR>
0.063604

>  <SCORE.INTRA.POLAR.0>
-0.063604

>  <SCORE.INTRA.REPUL>
0

>  <SCORE.INTRA.REPUL.0>
0

>  <SCORE.INTRA.SOLV>
-7.0009

>  <SCORE.INTRA.SOLV.lig_0>
-45.1123

>  <SCORE.INTRA.VDW>
-1.12553

>  <SCORE.INTRA.VDW.0>
1.61851

>  <SCORE.INTRA.norm>
-0.594302

>  <SCORE.RESTR>
0.141378

>  <SCORE.RESTR.CAVITY>
0.141378

>  <SCORE.RESTR.norm>
0.0117815

>  <SCORE.SYSTEM>
-20.5067

>  <SCORE.SYSTEM.CONST>
0

>  <SCORE.SYSTEM.DIHEDRAL>
5.64448

>  <SCORE.SYSTEM.POLAR>
-3.14902

>  <SCORE.SYSTEM.SOLV>
0.181623

>  <SCORE.SYSTEM.VDW>
-5.11642

>  <SCORE.SYSTEM.norm>
-1.70889

>  <SCORE.heavy>
12

>  <SCORE.norm>
-4.31057

$$$$
P152621411
 OpenBabel12072022113D
libRbt.so/2013.1/901 2013/11/27
 16 16  0  0  0  0  0  0  0  0999 V2000
  -28.1581   11.8094  -15.8948 C   0  0  0  0  0  0  0  0  0  0  0  0
  -27.8524   13.2664  -16.1369 C   0  0  0  0  0  0  0  0  0  0  0  0
  -28.9113   14.1844  -16.1392 C   0  0  0  0  0  0  0  0  0  0  0  0
  -28.6738   15.5373  -16.3400 C   0  0  0  0  0  0  0  0  0  0  0  0
  -27.3707   15.9905  -16.5346 C   0  0  0  0  0  0  0  0  0  0  0  0
  -26.2753   15.1027  -16.5548 C   0  0  0  0  0  0  0  0  0  0  0  0
  -26.5222   13.7209  -16.3368 C   0  0  0  0  0  0  0  0  0  0  0  0
  -25.3960   12.7289  -16.3220 C   0  0  0  0  0  0  0  0  0  0  0  0
  -24.2759   13.1502  -16.7787 O   0  0  0  0  0  0  0  0  0  0  0  0
  -25.5488   11.6572  -15.6729 O   0  5  0  0  0  0  0  0  0  0  0  0
  -24.9847   15.7064  -16.6613 N   0  0  0  0  0  0  0  0  0  0  0  0
  -24.7555   17.1281  -16.3960 N   0  3  0  0  0  0  0  0  0  0  0  0
  -25.5948   17.6838  -16.6333 H   0  0  0  0  0  0  0  0  0  0  0  0
  -24.8093   17.2929  -15.3464 H   0  0  0  0  0  0  0  0  0  0  0  0
  -23.8958   17.5388  -16.7546 H   0  0  0  0  0  0  0  0  0  0  0  0
  -24.2408   15.0479  -16.4189 H   0  0  0  0  0  0  0  0  0  0  0  0
  1  2  1  0  0  0  0
  2  3  2  0  0  0  0
  2  7  1  0  0  0  0
  3  4  1  0  0  0  0
  4  5  2  0  0  0  0
  5  6  1  0  0  0  0
  6  7  2  0  0  0  0
  6 11  1  0  0  0  0
  7  8  1  0  0  0  0
  8  9  2  0  0  0  0
  8 10  1  0  0  0  0
 11 12  1  0  0  0  0
 11 16  1  0  0  0  0
 12 13  1  0  0  0  0
 12 14  1  0  0  0  0
 12 15  1  0  0  0  0
M  CHG  2  10  -1  12   1
M  END
>  <CHROM.0>
-60.30138793,-61.71556635,-72.33127117,-43.69440554,-56.91287755,-57.86781255
-170.99540512,-65.55917468,-169.05833199

>  <CHROM.1>
16.42339039,165.98644865,-30.56807897,-26.45502807,14.17751570,-16.30709892
1.96120065,-0.06917243,3.04049000

>  <Name>
P152621411

>  <RI>
0

>  <Rbt.Current_Directory>
/home/fstefaniak/projects/zuza/docking/adenine/4TZX

>  <Rbt.Executable>
rbdock ($Id: //depot/dev/client3/rdock/2013.1/src/exe/rbdock.cxx#4 $)

>  <Rbt.Library>
libRbt.so (2013.1, Build901 2013/11/27)

>  <Rbt.Parameter_File>
/home/fstefaniak/progs/rDock//data/scripts/dock_solv.prm

>  <Rbt.Receptor>
4tzx.prm

>  <SCORE>
-51.7115

>  <SCORE.INTER>
-24.4998

>  <SCORE.INTER.CONST>
1

>  <SCORE.INTER.POLAR>
-4.36553

>  <SCORE.INTER.ROT>
2

>  <SCORE.INTER.SOLV>
21.2707

>  <SCORE.INTER.VDW>
-13.805

>  <SCORE.INTER.norm>
-2.04165

>  <SCORE.INTRA>
-6.76151

>  <SCORE.INTRA.DIHEDRAL>
-7.56622

>  <SCORE.INTRA.DIHEDRAL.0>
9.93661

>  <SCORE.INTRA.POLAR>
-0.0374867

>  <SCORE.INTRA.POLAR.0>
-0.063604

>  <SCORE.INTRA.REPUL>
0

>  <SCORE.INTRA.REPUL.0>
0

>  <SCORE.INTRA.SOLV>
-6.55947

>  <SCORE.INTRA.SOLV.lig_0>
-45.1123

>  <SCORE.INTRA.VDW>
0.428791

>  <SCORE.INTRA.VDW.0>
1.61851

>  <SCORE.INTRA.norm>
-0.563459

>  <SCORE.RESTR>
0.0906414

>  <SCORE.RESTR.CAVITY>
0.0906414

>  <SCORE.RESTR.norm>
0.00755345

>  <SCORE.SYSTEM>
-20.5409

>  <SCORE.SYSTEM.CONST>
0

>  <SCORE.SYSTEM.DIHEDRAL>
5.10329

>  <SCORE.SYSTEM.POLAR>
-3.02517

>  <SCORE.SYSTEM.SOLV>
0.1533

>  <SCORE.SYSTEM.VDW>
-5.36221

>  <SCORE.SYSTEM.norm>
-1.71174

>  <SCORE.heavy>
12

>  <SCORE.norm>
-4.30929

$$$$
P152625938
 OpenBabel12072022113D
libRbt.so/2013.1/901 2013/11/27
 14 13  0  0  0  0  0  0  0  0999 V2000
  -27.5571   13.9212  -16.4174 C   0  0  0  0  0  0  0  0  0  0  0  0
  -27.3205   15.4039  -16.1744 C   0  0  2  0  0  0  0  0  0  0  0  0
  -28.5469   16.2470  -16.5330 C   0  0  0  0  0  0  0  0  0  0  0  0
  -29.3518   16.5262  -15.2795 C   0  0  0  0  0  0  0  0  0  0  0  0
  -28.7776   17.2614  -14.3693 N   0  0  0  0  0  0  0  0  0  0  0  0
  -29.6409   17.4196  -13.2735 O   0  0  0  0  0  0  0  0  0  0  0  0
  -30.5961   15.9774  -15.1622 N   0  0  0  0  0  0  0  0  0  0  0  0
  -26.1542   15.8261  -17.0085 N   0  3  0  0  0  0  0  0  0  0  0  0
  -26.1052   16.8648  -17.0086 H   0  0  0  0  0  0  0  0  0  0  0  0
  -25.2604   15.4780  -16.6427 H   0  0  0  0  0  0  0  0  0  0  0  0
  -26.2426   15.5442  -17.9920 H   0  0  0  0  0  0  0  0  0  0  0  0
  -29.7626   18.3865  -13.2033 H   0  0  0  0  0  0  0  0  0  0  0  0
  -30.8552   15.2204  -15.7873 H   0  0  0  0  0  0  0  0  0  0  0  0
  -31.3278   16.6843  -15.0863 H   0  0  0  0  0  0  0  0  0  0  0  0
  2  3  1  0  0  0  0
  2  8  1  0  0  0  0
  2  1  1  6  0  0  0
  3  4  1  0  0  0  0
  4  5  2  0  0  0  0
  4  7  1  0  0  0  0
  5  6  1  0  0  0  0
  6 12  1  0  0  0  0
  7 13  1  0  0  0  0
  7 14  1  0  0  0  0
  8  9  1  0  0  0  0
  8 10  1  0  0  0  0
  8 11  1  0  0  0  0
M  CHG  1   8   1
M  END
>  <CHROM.0>
-59.17461297,-67.27698312,-60.97280894,48.57833802,-175.86502926,-63.27720675
-69.18086906,-58.13415679,-168.39647938

>  <CHROM.1>
96.84900040,168.25434655,65.10169814,15.40468403,-121.06880952,-28.48767164
16.08966420,-15.51770457,0.79274553,-0.30152480,-2.47735640

>  <Name>
P152625938

>  <RI>
0

>  <Rbt.Current_Directory>
/home/fstefaniak/projects/zuza/docking/adenine/4TZX

>  <Rbt.Executable>
rbdock ($Id: //depot/dev/client3/rdock/2013.1/src/exe/rbdock.cxx#4 $)

>  <Rbt.Library>
libRbt.so (2013.1, Build901 2013/11/27)

>  <Rbt.Parameter_File>
/home/fstefaniak/progs/rDock//data/scripts/dock_solv.prm

>  <Rbt.Receptor>
4tzx.prm

>  <SCORE>
-55.3052

>  <SCORE.INTER>
-39.7441

>  <SCORE.INTER.CONST>
1

>  <SCORE.INTER.POLAR>
-7.01916

>  <SCORE.INTER.ROT>
3

>  <SCORE.INTER.SOLV>
17.2181

>  <SCORE.INTER.VDW>
-14.4383

>  <SCORE.INTER.norm>
-4.96801

>  <SCORE.INTRA>
2.56183

>  <SCORE.INTRA.DIHEDRAL>
2.1073

>  <SCORE.INTRA.DIHEDRAL.0>
4.01598

>  <SCORE.INTRA.POLAR>
0.859103

>  <SCORE.INTRA.POLAR.0>
-0.859103

>  <SCORE.INTRA.REPUL>
0

>  <SCORE.INTRA.REPUL.0>
0

>  <SCORE.INTRA.SOLV>
-2.76043

>  <SCORE.INTRA.SOLV.lig_0>
-27.776

>  <SCORE.INTRA.VDW>
-0.032558

>  <SCORE.INTRA.VDW.0>
-0.179238

>  <SCORE.INTRA.norm>
0.320228

>  <SCORE.RESTR>
0

>  <SCORE.RESTR.CAVITY>
0

>  <SCORE.RESTR.norm>
0

>  <SCORE.SYSTEM>
-18.123

>  <SCORE.SYSTEM.CONST>
0

>  <SCORE.SYSTEM.DIHEDRAL>
4.10131

>  <SCORE.SYSTEM.POLAR>
-2.48819

>  <SCORE.SYSTEM.SOLV>
-0.0557737

>  <SCORE.SYSTEM.VDW>
-5.13652

>  <SCORE.SYSTEM.norm>
-2.26537

>  <SCORE.heavy>
8

>  <SCORE.norm>
-6.91316

$$$$
P152625938
 OpenBabel12072022113D
libRbt.so/2013.1/901 2013/11/27
 14 13  0  0  0  0  0  0  0  0999 V2000
  -30.8017   19.1223  -17.1821 C   0  0  0  0  0  0  0  0  0  0  0  0
  -30.4905   17.6820  -17.5590 C   0  0  2  0  0  0  0  0  0  0  0  0
  -29.3183   17.1181  -16.7518 C   0  0  0  0  0  0  0  0  0  0  0  0
  -29.7481   16.9138  -15.3129 C   0  0  0  0  0  0  0  0  0  0  0  0
  -28.9928   17.4511  -14.3967 N   0  0  0  0  0  0  0  0  0  0  0  0
  -29.5146   17.1662  -13.1248 O   0  0  0  0  0  0  0  0  0  0  0  0
  -30.8624   16.1671  -15.0599 N   0  0  0  0  0  0  0  0  0  0  0  0
  -30.1637   17.6487  -19.0172 N   0  3  0  0  0  0  0  0  0  0  0  0
  -29.7160   18.5504  -19.2774 H   0  0  0  0  0  0  0  0  0  0  0  0
  -29.5041   16.8995  -19.2571 H   0  0  0  0  0  0  0  0  0  0  0  0
  -30.9962   17.5609  -19.6121 H   0  0  0  0  0  0  0  0  0  0  0  0
  -28.7260   17.1096  -12.5506 H   0  0  0  0  0  0  0  0  0  0  0  0
  -31.0824   15.3950  -15.6815 H   0  0  0  0  0  0  0  0  0  0  0  0
  -31.6788   16.7433  -14.8544 H   0  0  0  0  0  0  0  0  0  0  0  0
  2  3  1  0  0  0  0
  2  8  1  0  0  0  0
  2  1  1  1  0  0  0
  3  4  1  0  0  0  0
  4  5  2  0  0  0  0
  4  7  1  0  0  0  0
  5  6  1  0  0  0  0
  6 12  1  0  0  0  0
  7 13  1  0  0  0  0
  7 14  1  0  0  0  0
  8  9  1  0  0  0  0
  8 10  1  0  0  0  0
  8 11  1  0  0  0  0
M  CHG  1   8   1
M  END
>  <CHROM.0>
-59.32326574,61.53843683,-72.49831369,-43.31472283,-177.74447457,-173.90155366
-172.36555025,57.26306172,-169.03178224

>  <CHROM.1>
70.58947483,31.46961886,-127.51299918,32.62090626,148.04929565,-30.00055476
17.40677969,-16.05306015,-2.31317587,1.33260709,2.51293083

>  <Name>
P152625938

>  <RI>
0

>  <Rbt.Current_Directory>
/home/fstefaniak/projects/zuza/docking/adenine/4TZX

>  <Rbt.Executable>
rbdock ($Id: //depot/dev/client3/rdock/2013.1/src/exe/rbdock.cxx#4 $)

>  <Rbt.Library>
libRbt.so (2013.1, Build901 2013/11/27)

>  <Rbt.Parameter_File>
/home/fstefaniak/progs/rDock//data/scripts/dock_solv.prm

>  <Rbt.Receptor>
4tzx.prm

>  <SCORE>
-51.3362

>  <SCORE.INTER>
-35.7074

>  <SCORE.INTER.CONST>
1

>  <SCORE.INTER.POLAR>
-5.64964

>  <SCORE.INTER.ROT>
3

>  <SCORE.INTER.SOLV>
22.2281

>  <SCORE.INTER.VDW>
-17.9822

>  <SCORE.INTER.norm>
-4.46343

>  <SCORE.INTRA>
3.15083

>  <SCORE.INTRA.DIHEDRAL>
1.22368

>  <SCORE.INTRA.DIHEDRAL.0>
4.01598

>  <SCORE.INTRA.POLAR>
0.859103

>  <SCORE.INTRA.POLAR.0>
-0.859103

>  <SCORE.INTRA.REPUL>
0

>  <SCORE.INTRA.REPUL.0>
0

>  <SCORE.INTRA.SOLV>
-2.80365

>  <SCORE.INTRA.SOLV.lig_0>
-27.776

>  <SCORE.INTRA.VDW>
1.01987

>  <SCORE.INTRA.VDW.0>
-0.179238

>  <SCORE.INTRA.norm>
0.393854

>  <SCORE.RESTR>
0

>  <SCORE.RESTR.CAVITY>
0

>  <SCORE.RESTR.norm>
0

>  <SCORE.SYSTEM>
-18.7797

>  <SCORE.SYSTEM.CONST>
0

>  <SCORE.SYSTEM.DIHEDRAL>
5.09697

>  <SCORE.SYSTEM.POLAR>
-3.02706

>  <SCORE.SYSTEM.SOLV>
-0.260085

>  <SCORE.SYSTEM.VDW>
-4.04186

>  <SCORE.SYSTEM.norm>
-2.34746

>  <SCORE.heavy>
8

>  <SCORE.norm>
-6.41703

$$$$
P152625938
 OpenBabel12072022113D
libRbt.so/2013.1/901 2013/11/27
 14 13  0  0  0  0  0  0  0  0999 V2000
  -30.9672   19.7803  -17.9429 C   0  0  0  0  0  0  0  0  0  0  0  0
  -30.7211   18.2993  -17.6982 C   0  0  2  0  0  0  0  0  0  0  0  0
  -29.8315   18.0598  -16.4756 C   0  0  0  0  0  0  0  0  0  0  0  0
  -30.6625   17.4693  -15.3543 C   0  0  0  0  0  0  0  0  0  0  0  0
  -31.3775   18.3055  -14.6556 N   0  0  0  0  0  0  0  0  0  0  0  0
  -32.0774   17.6110  -13.6560 O   0  0  0  0  0  0  0  0  0  0  0  0
  -30.5935   16.1258  -15.1229 N   0  0  0  0  0  0  0  0  0  0  0  0
  -30.0681   17.7342  -18.9182 N   0  3  0  0  0  0  0  0  0  0  0  0
  -30.8031   17.3201  -19.5262 H   0  0  0  0  0  0  0  0  0  0  0  0
  -29.5801   18.4480  -19.4716 H   0  0  0  0  0  0  0  0  0  0  0  0
  -29.4118   16.9736  -18.7051 H   0  0  0  0  0  0  0  0  0  0  0  0
  -32.8573   18.1718  -13.4773 H   0  0  0  0  0  0  0  0  0  0  0  0
  -29.6789   15.6898  -15.0562 H   0  0  0  0  0  0  0  0  0  0  0  0
  -31.2329   15.5954  -15.7149 H   0  0  0  0  0  0  0  0  0  0  0  0
  2  3  1  0  0  0  0
  2  8  1  0  0  0  0
  2  1  1  6  0  0  0
  3  4  1  0  0  0  0
  4  5  2  0  0  0  0
  4  7  1  0  0  0  0
  5  6  1  0  0  0  0
  6 12  1  0  0  0  0
  7 13  1  0  0  0  0
  7 14  1  0  0  0  0
  8  9  1  0  0  0  0
  8 10  1  0  0  0  0
  8 11  1  0  0  0  0
M  CHG  1   8   1
M  END
>  <CHROM.0>
-57.81383720,-52.63557353,-71.79200769,-43.73691690,-54.62545625,59.37139417
-167.16857240,-58.75223983,-169.89842684

>  <CHROM.1>
109.01201342,-95.16847315,-80.43190964,48.61089938,-154.19262875,-30.80327125
17.89303553,-16.24109462,1.04690884,1.04613728,-0.84493571

>  <Name>
P152625938

>  <RI>
0

>  <Rbt.Current_Directory>
/home/fstefaniak/projects/zuza/docking/adenine/4TZX

>  <Rbt.Executable>
rbdock ($Id: //depot/dev/client3/rdock/2013.1/src/exe/rbdock.cxx#4 $)

>  <Rbt.Library>
libRbt.so (2013.1, Build901 2013/11/27)

>  <Rbt.Parameter_File>
/home/fstefaniak/progs/rDock//data/scripts/dock_solv.prm

>  <Rbt.Receptor>
4tzx.prm

>  <SCORE>
-51.0488

>  <SCORE.INTER>
-37.0357

>  <SCORE.INTER.CONST>
1

>  <SCORE.INTER.POLAR>
-6.17581

>  <SCORE.INTER.ROT>
3

>  <SCORE.INTER.SOLV>
22.0948

>  <SCORE.INTER.VDW>
-17.0694

>  <SCORE.INTER.norm>
-4.62946

>  <SCORE.INTRA>
5.07481

>  <SCORE.INTRA.DIHEDRAL>
6.42128

>  <SCORE.INTRA.DIHEDRAL.0>
4.01598

>  <SCORE.INTRA.POLAR>
0.859103

>  <SCORE.INTRA.POLAR.0>
-0.859103

>  <SCORE.INTRA.REPUL>
0

>  <SCORE.INTRA.REPUL.0>
0

>  <SCORE.INTRA.SOLV>
-2.85762

>  <SCORE.INTRA.SOLV.lig_0>
-27.776

>  <SCORE.INTRA.VDW>
0.372028

>  <SCORE.INTRA.VDW.0>
-0.179238

>  <SCORE.INTRA.norm>
0.634351

>  <SCORE.RESTR>
0

>  <SCORE.RESTR.CAVITY>
0

>  <SCORE.RESTR.norm>
0

>  <SCORE.SYSTEM>
-19.0879

>  <SCORE.SYSTEM.CONST>
0

>  <SCORE.SYSTEM.DIHEDRAL>
5.52819

>  <SCORE.SYSTEM.POLAR>
-3.0214

>  <SCORE.SYSTEM.SOLV>
0.0427865

>  <SCORE.SYSTEM.VDW>
-4.51092

>  <SCORE.SYSTEM.norm>
-2.38598

>  <SCORE.heavy>
8

>  <SCORE.norm>
-6.3811

$$$$
P153029743
 OpenBabel12072022113D
libRbt.so/2013.1/901 2013/11/27
 12 11  0  0  0  0  0  0  0  0999 V2000
  -31.4659   17.9708  -14.0562 C   0  0  0  0  0  0  0  0  0  0  0  0
  -31.4270   17.6428  -15.5457 C   0  0  2  0  0  0  0  0  0  0  0  0
  -30.1449   16.8574  -15.8958 C   0  0  0  0  0  0  0  0  0  0  0  0
  -30.1146   15.5629  -15.3015 O   0  0  0  0  0  0  0  0  0  0  0  0
  -31.5364   18.8884  -16.3116 N   0  0  0  0  0  0  0  0  0  0  0  0
  -31.8242   18.8843  -17.6497 C   0  0  0  0  0  0  0  0  0  0  0  0
  -32.9401   18.6684  -18.1016 O   0  0  0  0  0  0  0  0  0  0  0  0
  -30.7067   19.1269  -18.4015 N   0  0  0  0  0  0  0  0  0  0  0  0
  -30.0793   18.0496  -19.1258 C   0  0  0  0  0  0  0  0  0  0  0  0
  -30.8507   15.0342  -15.6802 H   0  0  0  0  0  0  0  0  0  0  0  0
  -30.9510   19.6581  -16.0192 H   0  0  0  0  0  0  0  0  0  0  0  0
  -30.6732   20.0415  -18.8272 H   0  0  0  0  0  0  0  0  0  0  0  0
  2  3  1  0  0  0  0
  2  5  1  0  0  0  0
  2  1  1  1  0  0  0
  3  4  1  0  0  0  0
  4 10  1  0  0  0  0
  5  6  1  0  0  0  0
  5 11  1  0  0  0  0
  6  7  2  0  0  0  0
  6  8  1  0  0  0  0
  8  9  1  0  0  0  0
  8 12  1  0  0  0  0
M  END
>  <CHROM.0>
-59.58983409,-69.16518191,-62.90275679,-42.89856674,-56.26903749,-175.57087709
-64.40119843,-58.99053332,-168.32168659

>  <CHROM.1>
66.31008016,-165.34340508,64.20402511,75.38991451,105.81000127,-31.12390775
17.93128221,-16.70525298,1.34019060,-0.77635331,1.93918409

>  <Name>
P153029743

>  <RI>
0

>  <Rbt.Current_Directory>
/home/fstefaniak/projects/zuza/docking/adenine/4TZX

>  <Rbt.Executable>
rbdock ($Id: //depot/dev/client3/rdock/2013.1/src/exe/rbdock.cxx#4 $)

>  <Rbt.Library>
libRbt.so (2013.1, Build901 2013/11/27)

>  <Rbt.Parameter_File>
/home/fstefaniak/progs/rDock//data/scripts/dock_solv.prm

>  <Rbt.Receptor>
4tzx.prm

>  <SCORE>
-53.6309

>  <SCORE.INTER>
-29.4129

>  <SCORE.INTER.CONST>
1

>  <SCORE.INTER.POLAR>
-3.89375

>  <SCORE.INTER.ROT>
4

>  <SCORE.INTER.SOLV>
14.8932

>  <SCORE.INTER.VDW>
-17.8605

>  <SCORE.INTER.norm>
-3.2681

>  <SCORE.INTRA>
-3.40017

>  <SCORE.INTRA.DIHEDRAL>
-4.66842

>  <SCORE.INTRA.DIHEDRAL.0>
6.1878

>  <SCORE.INTRA.POLAR>
0.201268

>  <SCORE.INTRA.POLAR.0>
-0.201268

>  <SCORE.INTRA.REPUL>
0

>  <SCORE.INTRA.REPUL.0>
0

>  <SCORE.INTRA.SOLV>
-0.998786

>  <SCORE.INTRA.SOLV.lig_0>
-16.2732

>  <SCORE.INTRA.VDW>
-1.25088

>  <SCORE.INTRA.VDW.0>
0.590693

>  <SCORE.INTRA.norm>
-0.377797

>  <SCORE.RESTR>
0

>  <SCORE.RESTR.CAVITY>
0

>  <SCORE.RESTR.norm>
0

>  <SCORE.SYSTEM>
-20.8179

>  <SCORE.SYSTEM.CONST>
0

>  <SCORE.SYSTEM.DIHEDRAL>
4.71683

>  <SCORE.SYSTEM.POLAR>
-3.06435

>  <SCORE.SYSTEM.SOLV>
0.0780941

>  <SCORE.SYSTEM.VDW>
-5.26238

>  <SCORE.SYSTEM.norm>
-2.3131

>  <SCORE.heavy>
9

>  <SCORE.norm>
-5.95899

$$$$
P153029743
 OpenBabel12072022113D
libRbt.so/2013.1/901 2013/11/27
 12 11  0  0  0  0  0  0  0  0999 V2000
  -31.4011   17.9849  -14.0214 C   0  0  0  0  0  0  0  0  0  0  0  0
  -31.4009   17.6570  -15.5114 C   0  0  2  0  0  0  0  0  0  0  0  0
  -30.1415   16.8484  -15.8897 C   0  0  0  0  0  0  0  0  0  0  0  0
  -30.1230   15.5523  -15.2982 O   0  0  0  0  0  0  0  0  0  0  0  0
  -31.5043   18.9047  -16.2747 N   0  0  0  0  0  0  0  0  0  0  0  0
  -31.7943   18.9051  -17.6122 C   0  0  0  0  0  0  0  0  0  0  0  0
  -32.9116   18.6936  -18.0629 O   0  0  0  0  0  0  0  0  0  0  0  0
  -30.6774   19.1463  -18.3653 N   0  0  0  0  0  0  0  0  0  0  0  0
  -30.1056   18.0900  -19.1627 C   0  0  0  0  0  0  0  0  0  0  0  0
  -30.8574   15.0278  -15.6858 H   0  0  0  0  0  0  0  0  0  0  0  0
  -30.9139   19.6704  -15.9817 H   0  0  0  0  0  0  0  0  0  0  0  0
  -30.6107   20.0829  -18.7356 H   0  0  0  0  0  0  0  0  0  0  0  0
  2  3  1  0  0  0  0
  2  5  1  0  0  0  0
  2  1  1  1  0  0  0
  3  4  1  0  0  0  0
  4 10  1  0  0  0  0
  5  6  1  0  0  0  0
  5 11  1  0  0  0  0
  6  7  2  0  0  0  0
  6  8  1  0  0  0  0
  8  9  1  0  0  0  0
  8 12  1  0  0  0  0
M  END
>  <CHROM.0>
-61.80567648,-61.36732139,63.51508426,-43.10338468,-55.56005490,-56.07492796
56.03119899,-56.45976163,-169.09610276

>  <CHROM.1>
66.41356590,-166.71323838,66.19146934,75.21766972,109.87064403,-31.10422283
17.94573920,-16.68426515,1.34123324,-0.80376384,1.93588526

>  <Name>
P153029743

>  <RI>
0

>  <Rbt.Current_Directory>
/home/fstefaniak/projects/zuza/docking/adenine/4TZX

>  <Rbt.Executable>
rbdock ($Id: //depot/dev/client3/rdock/2013.1/src/exe/rbdock.cxx#4 $)

>  <Rbt.Library>
libRbt.so (2013.1, Build901 2013/11/27)

>  <Rbt.Parameter_File>
/home/fstefaniak/progs/rDock//data/scripts/dock_solv.prm

>  <Rbt.Receptor>
4tzx.prm

>  <SCORE>
-51.7549

>  <SCORE.INTER>
-29.3527

>  <SCORE.INTER.CONST>
1

>  <SCORE.INTER.POLAR>
-3.86255

>  <SCORE.INTER.ROT>
4

>  <SCORE.INTER.SOLV>
14.9785

>  <SCORE.INTER.VDW>
-17.9528

>  <SCORE.INTER.norm>
-3.26141

>  <SCORE.INTRA>
-3.34997

>  <SCORE.INTRA.DIHEDRAL>
-4.56525

>  <SCORE.INTRA.DIHEDRAL.0>
6.1878

>  <SCORE.INTRA.POLAR>
0.201268

>  <SCORE.INTRA.POLAR.0>
-0.201268

>  <SCORE.INTRA.REPUL>
0

>  <SCORE.INTRA.REPUL.0>
0

>  <SCORE.INTRA.SOLV>
-1.00694

>  <SCORE.INTRA.SOLV.lig_0>
-16.2732

>  <SCORE.INTRA.VDW>
-1.24819

>  <SCORE.INTRA.VDW.0>
0.590693

>  <SCORE.INTRA.norm>
-0.372219

>  <SCORE.RESTR>
0

>  <SCORE.RESTR.CAVITY>
0

>  <SCORE.RESTR.norm>
0

>  <SCORE.SYSTEM>
-19.0523

>  <SCORE.SYSTEM.CONST>
0

>  <SCORE.SYSTEM.DIHEDRAL>
4.29866

>  <SCORE.SYSTEM.POLAR>
-3.04667

>  <SCORE.SYSTEM.SOLV>
0.0899677

>  <SCORE.SYSTEM.VDW>
-4.00882

>  <SCORE.SYSTEM.norm>
-2.11692

>  <SCORE.heavy>
9

>  <SCORE.norm>
-5.75055

$$$$
P153029743
 OpenBabel12072022113D
libRbt.so/2013.1/901 2013/11/27
 12 11  0  0  0  0  0  0  0  0999 V2000
  -31.4320   17.9158  -14.0289 C   0  0  0  0  0  0  0  0  0  0  0  0
  -31.4379   17.6364  -15.5288 C   0  0  2  0  0  0  0  0  0  0  0  0
  -30.1820   16.8372  -15.9376 C   0  0  0  0  0  0  0  0  0  0  0  0
  -30.1155   15.5599  -15.3097 O   0  0  0  0  0  0  0  0  0  0  0  0
  -31.5406   18.9084  -16.2509 N   0  0  0  0  0  0  0  0  0  0  0  0
  -31.8563   18.9538  -17.5819 C   0  0  0  0  0  0  0  0  0  0  0  0
  -32.9697   18.7042  -18.0226 O   0  0  0  0  0  0  0  0  0  0  0  0
  -30.7683   19.2875  -18.3419 N   0  0  0  0  0  0  0  0  0  0  0  0
  -30.2562   18.3537  -19.3138 C   0  0  0  0  0  0  0  0  0  0  0  0
  -30.8340   14.9999  -15.6770 H   0  0  0  0  0  0  0  0  0  0  0  0
  -30.9354   19.6576  -15.9459 H   0  0  0  0  0  0  0  0  0  0  0  0
  -30.6966   20.2679  -18.5712 H   0  0  0  0  0  0  0  0  0  0  0  0
  2  3  1  0  0  0  0
  2  5  1  0  0  0  0
  2  1  1  1  0  0  0
  3  4  1  0  0  0  0
  4 10  1  0  0  0  0
  5  6  1  0  0  0  0
  5 11  1  0  0  0  0
  6  7  2  0  0  0  0
  6  8  1  0  0  0  0
  8  9  1  0  0  0  0
  8 12  1  0  0  0  0
M  END
>  <CHROM.0>
-61.39607539,175.61357300,-72.94324424,-43.92141548,-60.66027777,-60.17141116
-174.53670694,-57.43678905,-168.61705468

>  <CHROM.1>
62.05237771,-165.65724524,68.50383789,71.43424297,117.30048783,-31.15869809
17.98775944,-16.69628933,1.33983330,-0.79336392,1.96278986

>  <Name>
P153029743

>  <RI>
0

>  <Rbt.Current_Directory>
/home/fstefaniak/projects/zuza/docking/adenine/4TZX

>  <Rbt.Executable>
rbdock ($Id: //depot/dev/client3/rdock/2013.1/src/exe/rbdock.cxx#4 $)

>  <Rbt.Library>
libRbt.so (2013.1, Build901 2013/11/27)

>  <Rbt.Parameter_File>
/home/fstefaniak/progs/rDock//data/scripts/dock_solv.prm

>  <Rbt.Receptor>
4tzx.prm

>  <SCORE>
-51.4535

>  <SCORE.INTER>
-27.9267

>  <SCORE.INTER.CONST>
1

>  <SCORE.INTER.POLAR>
-3.83958

>  <SCORE.INTER.ROT>
4

>  <SCORE.INTER.SOLV>
15.1196

>  <SCORE.INTER.VDW>
-17.1258

>  <SCORE.INTER.norm>
-3.10297

>  <SCORE.INTRA>
-3.29479

>  <SCORE.INTRA.DIHEDRAL>
-4.53544

>  <SCORE.INTRA.DIHEDRAL.0>
6.1878

>  <SCORE.INTRA.POLAR>
0.201268

>  <SCORE.INTRA.POLAR.0>
-0.201268

>  <SCORE.INTRA.REPUL>
0

>  <SCORE.INTRA.REPUL.0>
0

>  <SCORE.INTRA.SOLV>
-1.04792

>  <SCORE.INTRA.SOLV.lig_0>
-16.2732

>  <SCORE.INTRA.VDW>
-1.18743

>  <SCORE.INTRA.VDW.0>
0.590693

>  <SCORE.INTRA.norm>
-0.366088

>  <SCORE.RESTR>
0

>  <SCORE.RESTR.CAVITY>
0

>  <SCORE.RESTR.norm>
0

>  <SCORE.SYSTEM>
-20.232

>  <SCORE.SYSTEM.CONST>
0

>  <SCORE.SYSTEM.DIHEDRAL>
4.86768

>  <SCORE.SYSTEM.POLAR>
-3.00515

>  <SCORE.SYSTEM.SOLV>
0.132734

>  <SCORE.SYSTEM.VDW>
-5.13762

>  <SCORE.SYSTEM.norm>
-2.248

>  <SCORE.heavy>
9

>  <SCORE.norm>
-5.71706

$$$$
P155110579
 OpenBabel12072022113D
libRbt.so/2013.1/901 2013/11/27
 17 16  0  0  0  0  0  0  0  0999 V2000
  -28.9548   14.3645  -16.2250 C   0  0  0  0  0  0  0  0  0  0  0  0
  -27.6242   13.6353  -16.5276 C   0  0  0  0  0  0  0  0  0  0  0  0
  -27.6038   12.3423  -15.6945 C   0  0  0  0  0  0  0  0  0  0  0  0
  -27.6435   13.2411  -18.0200 C   0  0  0  0  0  0  0  0  0  0  0  0
  -26.4237   14.5985  -16.2587 C   0  0  2  0  0  0  0  0  0  0  0  0
  -26.5739   16.0990  -16.6334 C   0  0  2  0  0  0  0  0  0  0  0  0
  -25.2335   16.8312  -16.6605 C   0  0  0  0  0  0  0  0  0  0  0  0
  -24.8981   17.5923  -15.7543 O   0  0  0  0  0  0  0  0  0  0  0  0
  -24.4851   16.6791  -17.7857 N   0  0  0  0  0  0  0  0  0  0  0  0
  -27.3380   16.7006  -15.5687 O   0  0  0  0  0  0  0  0  0  0  0  0
  -25.1466   14.0928  -16.8740 N   0  3  0  0  0  0  0  0  0  0  0  0
  -25.0006   13.1235  -16.5497 H   0  0  0  0  0  0  0  0  0  0  0  0
  -25.1186   14.1009  -17.8973 H   0  0  0  0  0  0  0  0  0  0  0  0
  -24.3355   14.6237  -16.5002 H   0  0  0  0  0  0  0  0  0  0  0  0
  -24.6583   15.9864  -18.5048 H   0  0  0  0  0  0  0  0  0  0  0  0
  -23.5873   17.1539  -17.8267 H   0  0  0  0  0  0  0  0  0  0  0  0
  -27.5163   17.6297  -15.8194 H   0  0  0  0  0  0  0  0  0  0  0  0
  1  2  1  0  0  0  0
  2  3  1  0  0  0  0
  2  4  1  0  0  0  0
  5 11  1  0  0  0  0
  5  2  1  6  0  0  0
  6  7  1  1  0  0  0
  6 10  1  0  0  0  0
  6  5  1  0  0  0  0
  7  8  2  0  0  0  0
  7  9  1  0  0  0  0
  9 15  1  0  0  0  0
  9 16  1  0  0  0  0
 10 17  1  0  0  0  0
 11 12  1  0  0  0  0
 11 13  1  0  0  0  0
 11 14  1  0  0  0  0
M  CHG  1  11   1
M  END
>  <CHROM.0>
-53.32493035,-174.58836295,-63.25365235,-43.41813317,-61.89509965,-176.19411721
-68.78215387,-62.46776515,-169.30663449

>  <CHROM.1>
-53.00366794,-37.84954210,-104.22850556,-174.99226066,-165.01633923,-26.50435146
15.12940679,-16.54966993,2.27836865,-0.43095144,-2.80732621

>  <Name>
P155110579

>  <RI>
0

>  <Rbt.Current_Directory>
/home/fstefaniak/projects/zuza/docking/adenine/4TZX

>  <Rbt.Executable>
rbdock ($Id: //depot/dev/client3/rdock/2013.1/src/exe/rbdock.cxx#4 $)

>  <Rbt.Library>
libRbt.so (2013.1, Build901 2013/11/27)

>  <Rbt.Parameter_File>
/home/fstefaniak/progs/rDock//data/scripts/dock_solv.prm

>  <Rbt.Receptor>
4tzx.prm

>  <SCORE>
-46.5388

>  <SCORE.INTER>
-28.7383

>  <SCORE.INTER.CONST>
1

>  <SCORE.INTER.POLAR>
-4.56125

>  <SCORE.INTER.ROT>
3

>  <SCORE.INTER.SOLV>
17.9375

>  <SCORE.INTER.VDW>
-15.5339

>  <SCORE.INTER.norm>
-2.61257

>  <SCORE.INTRA>
2.91649

>  <SCORE.INTRA.DIHEDRAL>
1.44027

>  <SCORE.INTRA.DIHEDRAL.0>
2.79952

>  <SCORE.INTRA.POLAR>
0.236014

>  <SCORE.INTRA.POLAR.0>
-0.236014

>  <SCORE.INTRA.REPUL>
0

>  <SCORE.INTRA.REPUL.0>
0

>  <SCORE.INTRA.SOLV>
0.0834441

>  <SCORE.INTRA.SOLV.lig_0>
-29.1422

>  <SCORE.INTRA.VDW>
1.35219

>  <SCORE.INTRA.VDW.0>
-0.616711

>  <SCORE.INTRA.norm>
0.265135

>  <SCORE.RESTR>
0

>  <SCORE.RESTR.CAVITY>
0

>  <SCORE.RESTR.norm>
0

>  <SCORE.SYSTEM>
-20.717

>  <SCORE.SYSTEM.CONST>
0

>  <SCORE.SYSTEM.DIHEDRAL>
4.71342

>  <SCORE.SYSTEM.POLAR>
-3.09232

>  <SCORE.SYSTEM.SOLV>
0.0382141

>  <SCORE.SYSTEM.VDW>
-5.08748

>  <SCORE.SYSTEM.norm>
-1.88336

>  <SCORE.heavy>
11

>  <SCORE.norm>
-4.2308

$$$$
P155110579
 OpenBabel12072022113D
libRbt.so/2013.1/901 2013/11/27
 17 16  0  0  0  0  0  0  0  0999 V2000
  -25.4949   13.0330  -16.6253 C   0  0  0  0  0  0  0  0  0  0  0  0
  -27.0123   13.3251  -16.7026 C   0  0  0  0  0  0  0  0  0  0  0  0
  -27.4937   12.9112  -18.1037 C   0  0  0  0  0  0  0  0  0  0  0  0
  -27.7103   12.4145  -15.6698 C   0  0  0  0  0  0  0  0  0  0  0  0
  -27.2787   14.8218  -16.3416 C   0  0  2  0  0  0  0  0  0  0  0  0
  -28.7042   15.3993  -16.5626 C   0  0  2  0  0  0  0  0  0  0  0  0
  -28.8313   16.8423  -16.0778 C   0  0  0  0  0  0  0  0  0  0  0  0
  -28.2170   17.2457  -15.0914 O   0  0  0  0  0  0  0  0  0  0  0  0
  -29.7375   17.6201  -16.7282 N   0  0  0  0  0  0  0  0  0  0  0  0
  -29.5841   14.6174  -15.7296 O   0  0  0  0  0  0  0  0  0  0  0  0
  -26.2957   15.7460  -17.0085 N   0  3  0  0  0  0  0  0  0  0  0  0
  -26.2378   15.4816  -18.0049 H   0  0  0  0  0  0  0  0  0  0  0  0
  -26.5202   16.7430  -16.9493 H   0  0  0  0  0  0  0  0  0  0  0  0
  -25.3406   15.5821  -16.6336 H   0  0  0  0  0  0  0  0  0  0  0  0
  -30.1830   17.3767  -17.6052 H   0  0  0  0  0  0  0  0  0  0  0  0
  -29.8384   18.5854  -16.4262 H   0  0  0  0  0  0  0  0  0  0  0  0
  -30.5041   14.8420  -15.9765 H   0  0  0  0  0  0  0  0  0  0  0  0
  1  2  1  0  0  0  0
  2  3  1  0  0  0  0
  2  4  1  0  0  0  0
  5 11  1  0  0  0  0
  5  2  1  6  0  0  0
  6  7  1  1  0  0  0
  6 10  1  0  0  0  0
  6  5  1  0  0  0  0
  7  8  2  0  0  0  0
  7  9  1  0  0  0  0
  9 15  1  0  0  0  0
  9 16  1  0  0  0  0
 10 17  1  0  0  0  0
 11 12  1  0  0  0  0
 11 13  1  0  0  0  0
 11 14  1  0  0  0  0
M  CHG  1  11   1
M  END
>  <CHROM.0>
-49.92018197,-169.44682145,-64.82896830,-43.71076209,-63.15986257,-66.64209225
-67.62327259,-55.58557505,-169.13423910

>  <CHROM.1>
47.80107350,170.76769410,-34.37104035,-169.27245375,176.17126271,-27.86465069
14.94215688,-16.42370715,-1.03918926,0.22499021,0.04456244

>  <Name>
P155110579

>  <RI>
0

>  <Rbt.Current_Directory>
/home/fstefaniak/projects/zuza/docking/adenine/4TZX

>  <Rbt.Executable>
rbdock ($Id: //depot/dev/client3/rdock/2013.1/src/exe/rbdock.cxx#4 $)

>  <Rbt.Library>
libRbt.so (2013.1, Build901 2013/11/27)

>  <Rbt.Parameter_File>
/home/fstefaniak/progs/rDock//data/scripts/dock_solv.prm

>  <Rbt.Receptor>
4tzx.prm

>  <SCORE>
-46.1935

>  <SCORE.INTER>
-26.6921

>  <SCORE.INTER.CONST>
1

>  <SCORE.INTER.POLAR>
-4.1307

>  <SCORE.INTER.ROT>
3

>  <SCORE.INTER.SOLV>
17.0255

>  <SCORE.INTER.VDW>
-15.3009

>  <SCORE.INTER.norm>
-2.42655

>  <SCORE.INTRA>
1.13056

>  <SCORE.INTRA.DIHEDRAL>
0.669037

>  <SCORE.INTRA.DIHEDRAL.0>
2.79952

>  <SCORE.INTRA.POLAR>
0.236014

>  <SCORE.INTRA.POLAR.0>
-0.236014

>  <SCORE.INTRA.REPUL>
0

>  <SCORE.INTRA.REPUL.0>
0

>  <SCORE.INTRA.SOLV>
-1.62689

>  <SCORE.INTRA.SOLV.lig_0>
-29.1422

>  <SCORE.INTRA.VDW>
0.807032

>  <SCORE.INTRA.VDW.0>
-0.616711

>  <SCORE.INTRA.norm>
0.102778

>  <SCORE.RESTR>
0

>  <SCORE.RESTR.CAVITY>
0

>  <SCORE.RESTR.norm>
0

>  <SCORE.SYSTEM>
-20.632

>  <SCORE.SYSTEM.CONST>
0

>  <SCORE.SYSTEM.DIHEDRAL>
5.52166

>  <SCORE.SYSTEM.POLAR>
-3.12662

>  <SCORE.SYSTEM.SOLV>
0.151956

>  <SCORE.SYSTEM.VDW>
-5.22381

>  <SCORE.SYSTEM.norm>
-1.87563

>  <SCORE.heavy>
11

>  <SCORE.norm>
-4.19941

$$$$
P155110579
 OpenBabel12072022113D
libRbt.so/2013.1/901 2013/11/27
 17 16  0  0  0  0  0  0  0  0999 V2000
  -25.5206   13.0269  -16.5982 C   0  0  0  0  0  0  0  0  0  0  0  0
  -27.0317   13.3444  -16.6965 C   0  0  0  0  0  0  0  0  0  0  0  0
  -27.5021   12.9312  -18.1015 C   0  0  0  0  0  0  0  0  0  0  0  0
  -27.7583   12.4515  -15.6681 C   0  0  0  0  0  0  0  0  0  0  0  0
  -27.2770   14.8474  -16.3468 C   0  0  2  0  0  0  0  0  0  0  0  0
  -28.7005   15.4367  -16.5488 C   0  0  2  0  0  0  0  0  0  0  0  0
  -28.8016   16.8899  -16.0889 C   0  0  0  0  0  0  0  0  0  0  0  0
  -28.1407   17.3119  -15.1411 O   0  0  0  0  0  0  0  0  0  0  0  0
  -29.7356   17.6568  -16.7122 N   0  0  0  0  0  0  0  0  0  0  0  0
  -29.5709   14.6806  -15.6826 O   0  0  0  0  0  0  0  0  0  0  0  0
  -26.2970   15.7547  -17.0408 N   0  3  0  0  0  0  0  0  0  0  0  0
  -26.3094   15.5242  -18.0472 H   0  0  0  0  0  0  0  0  0  0  0  0
  -26.4753   16.7572  -16.9348 H   0  0  0  0  0  0  0  0  0  0  0  0
  -25.3292   15.5393  -16.7302 H   0  0  0  0  0  0  0  0  0  0  0  0
  -30.2224   17.3965  -17.5620 H   0  0  0  0  0  0  0  0  0  0  0  0
  -29.8201   18.6285  -16.4261 H   0  0  0  0  0  0  0  0  0  0  0  0
  -30.4914   14.8393  -15.9748 H   0  0  0  0  0  0  0  0  0  0  0  0
  1  2  1  0  0  0  0
  2  3  1  0  0  0  0
  2  4  1  0  0  0  0
  5 11  1  0  0  0  0
  5  2  1  6  0  0  0
  6  7  1  1  0  0  0
  6 10  1  0  0  0  0
  6  5  1  0  0  0  0
  7  8  2  0  0  0  0
  7  9  1  0  0  0  0
  9 15  1  0  0  0  0
  9 16  1  0  0  0  0
 10 17  1  0  0  0  0
 11 12  1  0  0  0  0
 11 13  1  0  0  0  0
 11 14  1  0  0  0  0
M  CHG  1  11   1
M  END
>  <CHROM.0>
-56.39046907,-167.65617474,-70.67154424,-42.92125457,-177.20464450,-178.66197425
-170.64865905,-63.58277492,-168.40663536

>  <CHROM.1>
51.77677611,172.59141399,-32.80829668,-163.50917751,176.69485112,-27.86231060
14.97423517,-16.42268208,-1.05121534,0.23521383,0.03809221

>  <Name>
P155110579

>  <RI>
0

>  <Rbt.Current_Directory>
/home/fstefaniak/projects/zuza/docking/adenine/4TZX

>  <Rbt.Executable>
rbdock ($Id: //depot/dev/client3/rdock/2013.1/src/exe/rbdock.cxx#4 $)

>  <Rbt.Library>
libRbt.so (2013.1, Build901 2013/11/27)

>  <Rbt.Parameter_File>
/home/fstefaniak/progs/rDock//data/scripts/dock_solv.prm

>  <Rbt.Receptor>
4tzx.prm

>  <SCORE>
-45.7611

>  <SCORE.INTER>
-26.9986

>  <SCORE.INTER.CONST>
1

>  <SCORE.INTER.POLAR>
-4.3384

>  <SCORE.INTER.ROT>
3

>  <SCORE.INTER.SOLV>
17.1442

>  <SCORE.INTER.VDW>
-14.8525

>  <SCORE.INTER.norm>
-2.45442

>  <SCORE.INTRA>
1.38053

>  <SCORE.INTRA.DIHEDRAL>
1.04791

>  <SCORE.INTRA.DIHEDRAL.0>
2.79952

>  <SCORE.INTRA.POLAR>
0.236014

>  <SCORE.INTRA.POLAR.0>
-0.236014

>  <SCORE.INTRA.REPUL>
0

>  <SCORE.INTRA.REPUL.0>
0

>  <SCORE.INTRA.SOLV>
-1.62191

>  <SCORE.INTRA.SOLV.lig_0>
-29.1422

>  <SCORE.INTRA.VDW>
0.865081

>  <SCORE.INTRA.VDW.0>
-0.616711

>  <SCORE.INTRA.norm>
0.125503

>  <SCORE.RESTR>
0

>  <SCORE.RESTR.CAVITY>
0

>  <SCORE.RESTR.norm>
0

>  <SCORE.SYSTEM>
-20.143

>  <SCORE.SYSTEM.CONST>
0

>  <SCORE.SYSTEM.DIHEDRAL>
5.79299

>  <SCORE.SYSTEM.POLAR>
-3.06449

>  <SCORE.SYSTEM.SOLV>
-0.180101

>  <SCORE.SYSTEM.VDW>
-5.08462

>  <SCORE.SYSTEM.norm>
-1.83118

>  <SCORE.heavy>
11

>  <SCORE.norm>
-4.1601

$$$$
P155268485
 OpenBabel12072022113D
libRbt.so/2013.1/901 2013/11/27
 12 11  0  0  0  0  0  0  0  0999 V2000
  -30.9452   19.4614  -17.7738 C   0  0  0  0  0  0  0  0  0  0  0  0
  -30.4025   18.0798  -17.4496 C   0  0  0  0  0  0  0  0  0  0  0  0
  -30.4777   17.5461  -16.2025 C   0  0  0  0  0  0  0  0  0  0  0  0
  -31.0725   18.2401  -15.1102 C   0  0  0  0  0  0  0  0  0  0  0  0
  -31.5508   18.8305  -14.2319 N   0  0  0  0  0  0  0  0  0  0  0  0
  -29.9097   16.1945  -15.9361 C   0  0  0  0  0  0  0  0  0  0  0  0
  -30.1304   15.5356  -14.9270 O   0  0  0  0  0  0  0  0  0  0  0  0
  -29.1166   15.7956  -16.9649 O   0  0  0  0  0  0  0  0  0  0  0  0
  -28.4423   14.5554  -16.7432 C   0  0  0  0  0  0  0  0  0  0  0  0
  -29.8554   17.4379  -18.5566 N   0  0  0  0  0  0  0  0  0  0  0  0
  -29.1473   16.7397  -18.3384 H   0  0  0  0  0  0  0  0  0  0  0  0
  -30.5530   17.0845  -19.2235 H   0  0  0  0  0  0  0  0  0  0  0  0
  1  2  1  0  0  0  0
  2  3  2  0  0  0  0
  2 10  1  0  0  0  0
  3  4  1  0  0  0  0
  3  6  1  0  0  0  0
  4  5  3  0  0  0  0
  6  7  2  0  0  0  0
  6  8  1  0  0  0  0
  8  9  1  0  0  0  0
 10 11  1  0  0  0  0
 10 12  1  0  0  0  0
M  END
>  <CHROM.0>
-60.54714469,-60.21586434,-66.51683328,-43.46135557,-176.11800238,-176.97136311
-68.14036313,-59.42774309,-169.53761917

>  <CHROM.1>
154.45490854,-166.54050916,175.11452587,-30.14632494,17.09915025,-16.43635819
-2.79760079,-1.02345987,2.08118467

>  <Name>
P155268485

>  <RI>
0

>  <Rbt.Current_Directory>
/home/fstefaniak/projects/zuza/docking/adenine/4TZX

>  <Rbt.Executable>
rbdock ($Id: //depot/dev/client3/rdock/2013.1/src/exe/rbdock.cxx#4 $)

>  <Rbt.Library>
libRbt.so (2013.1, Build901 2013/11/27)

>  <Rbt.Parameter_File>
/home/fstefaniak/progs/rDock//data/scripts/dock_solv.prm

>  <Rbt.Receptor>
4tzx.prm

>  <SCORE>
-47.6281

>  <SCORE.INTER>
-24.9515

>  <SCORE.INTER.CONST>
1

>  <SCORE.INTER.POLAR>
-2.5832

>  <SCORE.INTER.ROT>
3

>  <SCORE.INTER.SOLV>
11.9915

>  <SCORE.INTER.VDW>
-17.6208

>  <SCORE.INTER.norm>
-2.49515

>  <SCORE.INTRA>
-1.55062

>  <SCORE.INTRA.DIHEDRAL>
-0.335553

>  <SCORE.INTRA.DIHEDRAL.0>
1.64635

>  <SCORE.INTRA.POLAR>
-0.505897

>  <SCORE.INTRA.POLAR.0>
0

>  <SCORE.INTRA.REPUL>
0

>  <SCORE.INTRA.REPUL.0>
0

>  <SCORE.INTRA.SOLV>
-0.127029

>  <SCORE.INTRA.SOLV.lig_0>
-10.2967

>  <SCORE.INTRA.VDW>
0.400721

>  <SCORE.INTRA.VDW.0>
2.10067

>  <SCORE.INTRA.norm>
-0.155062

>  <SCORE.RESTR>
0

>  <SCORE.RESTR.CAVITY>
0

>  <SCORE.RESTR.norm>
0

>  <SCORE.SYSTEM>
-21.126

>  <SCORE.SYSTEM.CONST>
0

>  <SCORE.SYSTEM.DIHEDRAL>
4.44305

>  <SCORE.SYSTEM.POLAR>
-3.02656

>  <SCORE.SYSTEM.SOLV>
-0.122149

>  <SCORE.SYSTEM.VDW>
-5.43575

>  <SCORE.SYSTEM.norm>
-2.1126

>  <SCORE.heavy>
10

>  <SCORE.norm>
-4.76281

$$$$
P155268485
 OpenBabel12072022113D
libRbt.so/2013.1/901 2013/11/27
 12 11  0  0  0  0  0  0  0  0999 V2000
  -31.1148   19.2858  -17.8712 C   0  0  0  0  0  0  0  0  0  0  0  0
  -30.4169   17.9917  -17.4885 C   0  0  0  0  0  0  0  0  0  0  0  0
  -30.4417   17.5024  -16.2214 C   0  0  0  0  0  0  0  0  0  0  0  0
  -31.1252   18.1640  -15.1613 C   0  0  0  0  0  0  0  0  0  0  0  0
  -31.6785   18.7281  -14.3102 N   0  0  0  0  0  0  0  0  0  0  0  0
  -29.7215   16.2387  -15.8975 C   0  0  0  0  0  0  0  0  0  0  0  0
  -29.6219   15.7658  -14.7716 O   0  0  0  0  0  0  0  0  0  0  0  0
  -29.1937   15.6854  -17.0207 O   0  0  0  0  0  0  0  0  0  0  0  0
  -28.4801   14.4674  -16.7989 C   0  0  0  0  0  0  0  0  0  0  0  0
  -29.7868   17.3756  -18.5656 N   0  0  0  0  0  0  0  0  0  0  0  0
  -29.0510   16.7194  -18.3114 H   0  0  0  0  0  0  0  0  0  0  0  0
  -30.4336   16.9801  -19.2594 H   0  0  0  0  0  0  0  0  0  0  0  0
  1  2  1  0  0  0  0
  2  3  2  0  0  0  0
  2 10  1  0  0  0  0
  3  4  1  0  0  0  0
  3  6  1  0  0  0  0
  4  5  3  0  0  0  0
  6  7  2  0  0  0  0
  6  8  1  0  0  0  0
  8  9  1  0  0  0  0
 10 11  1  0  0  0  0
 10 12  1  0  0  0  0
M  END
>  <CHROM.0>
-56.12397093,-61.90929946,-67.78233863,-43.30763542,-56.45309091,-60.28520959
-66.42094930,-57.12615777,-168.98977496

>  <CHROM.1>
158.97732910,175.45581477,179.84265211,-30.11022863,17.05317417,-16.45621497
-2.93559088,-0.99169715,1.92618775

>  <Name>
P155268485

>  <RI>
0

>  <Rbt.Current_Directory>
/home/fstefaniak/projects/zuza/docking/adenine/4TZX

>  <Rbt.Executable>
rbdock ($Id: //depot/dev/client3/rdock/2013.1/src/exe/rbdock.cxx#4 $)

>  <Rbt.Library>
libRbt.so (2013.1, Build901 2013/11/27)

>  <Rbt.Parameter_File>
/home/fstefaniak/progs/rDock//data/scripts/dock_solv.prm

>  <Rbt.Receptor>
4tzx.prm

>  <SCORE>
-47.3072

>  <SCORE.INTER>
-24.9461

>  <SCORE.INTER.CONST>
1

>  <SCORE.INTER.POLAR>
-2.61335

>  <SCORE.INTER.ROT>
3

>  <SCORE.INTER.SOLV>
11.6037

>  <SCORE.INTER.VDW>
-17.3875

>  <SCORE.INTER.norm>
-2.49461

>  <SCORE.INTRA>
-1.23934

>  <SCORE.INTRA.DIHEDRAL>
-1.09601

>  <SCORE.INTRA.DIHEDRAL.0>
1.64635

>  <SCORE.INTRA.POLAR>
-0.444896

>  <SCORE.INTRA.POLAR.0>
0

>  <SCORE.INTRA.REPUL>
0

>  <SCORE.INTRA.REPUL.0>
0

>  <SCORE.INTRA.SOLV>
-0.114608

>  <SCORE.INTRA.SOLV.lig_0>
-10.2967

>  <SCORE.INTRA.VDW>
0.878618

>  <SCORE.INTRA.VDW.0>
2.10067

>  <SCORE.INTRA.norm>
-0.123934

>  <SCORE.RESTR>
0

>  <SCORE.RESTR.CAVITY>
0

>  <SCORE.RESTR.norm>
0

>  <SCORE.SYSTEM>
-21.1217

>  <SCORE.SYSTEM.CONST>
0

>  <SCORE.SYSTEM.DIHEDRAL>
4.55219

>  <SCORE.SYSTEM.POLAR>
-3.08163

>  <SCORE.SYSTEM.SOLV>
0.198846

>  <SCORE.SYSTEM.VDW>
-5.39271

>  <SCORE.SYSTEM.norm>
-2.11217

>  <SCORE.heavy>
10

>  <SCORE.norm>
-4.73072

$$$$
P155268485
 OpenBabel12072022113D
libRbt.so/2013.1/901 2013/11/27
 12 11  0  0  0  0  0  0  0  0999 V2000
  -31.6611   19.0171  -17.8417 C   0  0  0  0  0  0  0  0  0  0  0  0
  -30.5588   18.0146  -17.5444 C   0  0  0  0  0  0  0  0  0  0  0  0
  -30.2409   17.6419  -16.2773 C   0  0  0  0  0  0  0  0  0  0  0  0
  -30.9185   18.1604  -15.1368 C   0  0  0  0  0  0  0  0  0  0  0  0
  -31.4767   18.6067  -14.2214 N   0  0  0  0  0  0  0  0  0  0  0  0
  -29.1358   16.6703  -16.0426 C   0  0  0  0  0  0  0  0  0  0  0  0
  -28.2660   16.8013  -15.1896 O   0  0  0  0  0  0  0  0  0  0  0  0
  -29.2274   15.6220  -16.9024 O   0  0  0  0  0  0  0  0  0  0  0  0
  -28.3540   14.5324  -16.5992 C   0  0  0  0  0  0  0  0  0  0  0  0
  -29.9477   17.5228  -18.6940 N   0  0  0  0  0  0  0  0  0  0  0  0
  -29.1961   16.8568  -18.5262 H   0  0  0  0  0  0  0  0  0  0  0  0
  -30.6063   17.1892  -19.4089 H   0  0  0  0  0  0  0  0  0  0  0  0
  1  2  1  0  0  0  0
  2  3  2  0  0  0  0
  2 10  1  0  0  0  0
  3  4  1  0  0  0  0
  3  6  1  0  0  0  0
  4  5  3  0  0  0  0
  6  7  2  0  0  0  0
  6  8  1  0  0  0  0
  8  9  1  0  0  0  0
 10 11  1  0  0  0  0
 10 12  1  0  0  0  0
M  END
>  <CHROM.0>
-58.44175276,-62.23056047,-63.06141112,-42.64337528,-177.05507670,-61.05058740
-67.33084057,-58.26525990,-169.06859430

>  <CHROM.1>
179.26788753,134.82099449,-169.58785018,-29.92959153,17.19799857,-16.49233362
3.07263075,-0.85851985,1.48066277

>  <Name>
P155268485

>  <RI>
0

>  <Rbt.Current_Directory>
/home/fstefaniak/projects/zuza/docking/adenine/4TZX

>  <Rbt.Executable>
rbdock ($Id: //depot/dev/client3/rdock/2013.1/src/exe/rbdock.cxx#4 $)

>  <Rbt.Library>
libRbt.so (2013.1, Build901 2013/11/27)

>  <Rbt.Parameter_File>
/home/fstefaniak/progs/rDock//data/scripts/dock_solv.prm

>  <Rbt.Receptor>
4tzx.prm

>  <SCORE>
-47.127

>  <SCORE.INTER>
-26.1511

>  <SCORE.INTER.CONST>
1

>  <SCORE.INTER.POLAR>
-2.6358

>  <SCORE.INTER.ROT>
3

>  <SCORE.INTER.SOLV>
10.6851

>  <SCORE.INTER.VDW>
-17.8098

>  <SCORE.INTER.norm>
-2.61511

>  <SCORE.INTRA>
0.277496

>  <SCORE.INTRA.DIHEDRAL>
5.24542

>  <SCORE.INTRA.DIHEDRAL.0>
1.64635

>  <SCORE.INTRA.POLAR>
-0.420854

>  <SCORE.INTRA.POLAR.0>
0

>  <SCORE.INTRA.REPUL>
0

>  <SCORE.INTRA.REPUL.0>
0

>  <SCORE.INTRA.SOLV>
-0.18778

>  <SCORE.INTRA.SOLV.lig_0>
-10.2967

>  <SCORE.INTRA.VDW>
-0.820423

>  <SCORE.INTRA.VDW.0>
2.10067

>  <SCORE.INTRA.norm>
0.0277496

>  <SCORE.RESTR>
0

>  <SCORE.RESTR.CAVITY>
0

>  <SCORE.RESTR.norm>
0

>  <SCORE.SYSTEM>
-21.2534

>  <SCORE.SYSTEM.CONST>
0

>  <SCORE.SYSTEM.DIHEDRAL>
4.37754

>  <SCORE.SYSTEM.POLAR>
-3.06754

>  <SCORE.SYSTEM.SOLV>
0.00958529

>  <SCORE.SYSTEM.VDW>
-5.40616

>  <SCORE.SYSTEM.norm>
-2.12534

>  <SCORE.heavy>
10

>  <SCORE.norm>
-4.7127

$$$$
P155774521
 OpenBabel12072022113D
libRbt.so/2013.1/901 2013/11/27
 14 14  0  0  0  0  0  0  0  0999 V2000
  -30.7296   18.2729  -18.3847 C   0  0  0  0  0  0  0  0  0  0  0  0
  -29.6490   17.8857  -17.6919 C   0  0  0  0  0  0  0  0  0  0  0  0
  -29.7363   17.6150  -16.2588 C   0  0  0  0  0  0  0  0  0  0  0  0
  -28.5930   17.4111  -15.5727 C   0  0  0  0  0  0  0  0  0  0  0  0
  -28.4164   17.2517  -14.2109 N   0  0  0  0  0  0  0  0  0  0  0  0
  -27.4525   18.0536  -13.6022 O   0  0  0  0  0  0  0  0  0  0  0  0
  -31.0634   17.5899  -15.6346 C   0  0  0  0  0  0  0  0  0  0  0  0
  -32.1534   17.9814  -16.3041 C   0  0  0  0  0  0  0  0  0  0  0  0
  -32.0505   18.4019  -17.7201 C   0  0  0  0  0  0  0  0  0  0  0  0
  -33.0277   18.8092  -18.3366 O   0  0  0  0  0  0  0  0  0  0  0  0
  -31.1847   17.0830  -14.3560 O   0  0  0  0  0  0  0  0  0  0  0  0
  -29.3163   17.2967  -13.7125 H   0  0  0  0  0  0  0  0  0  0  0  0
  -27.9610   18.8320  -13.3031 H   0  0  0  0  0  0  0  0  0  0  0  0
  -32.0603   17.3579  -14.0204 H   0  0  0  0  0  0  0  0  0  0  0  0
  1  2  2  0  0  0  0
  1  9  1  0  0  0  0
  2  3  1  0  0  0  0
  3  4  2  0  0  0  0
  3  7  1  0  0  0  0
  4  5  1  0  0  0  0
  5  6  1  0  0  0  0
  5 12  1  0  0  0  0
  6 13  1  0  0  0  0
  7  8  2  0  0  0  0
  7 11  1  0  0  0  0
  8  9  1  0  0  0  0
  9 10  2  0  0  0  0
 11 14  1  0  0  0  0
M  END
>  <CHROM.0>
-58.52960447,-64.28740274,-68.33401245,-42.48793134,-58.38886551,-175.22817124
-68.15899791,-59.77586782,-167.94920749

>  <CHROM.1>
-129.06122657,92.52988752,165.29322410,-30.34392881,17.85350045,-16.07501367
-2.35828645,0.01054529,1.79502399

>  <Name>
P155774521

>  <RI>
0

>  <Rbt.Current_Directory>
/home/fstefaniak/projects/zuza/docking/adenine/4TZX

>  <Rbt.Executable>
rbdock ($Id: //depot/dev/client3/rdock/2013.1/src/exe/rbdock.cxx#4 $)

>  <Rbt.Library>
libRbt.so (2013.1, Build901 2013/11/27)

>  <Rbt.Parameter_File>
/home/fstefaniak/progs/rDock//data/scripts/dock_solv.prm

>  <Rbt.Receptor>
4tzx.prm

>  <SCORE>
-52.0231

>  <SCORE.INTER>
-30.1173

>  <SCORE.INTER.CONST>
1

>  <SCORE.INTER.POLAR>
-4.47297

>  <SCORE.INTER.ROT>
1

>  <SCORE.INTER.SOLV>
14.3227

>  <SCORE.INTER.VDW>
-14.2092

>  <SCORE.INTER.norm>
-2.73794

>  <SCORE.INTRA>
-1.01958

>  <SCORE.INTRA.DIHEDRAL>
-0.781669

>  <SCORE.INTRA.DIHEDRAL.0>
2.0052

>  <SCORE.INTRA.POLAR>
-0.228155

>  <SCORE.INTRA.POLAR.0>
-0.398033

>  <SCORE.INTRA.REPUL>
0

>  <SCORE.INTRA.REPUL.0>
0

>  <SCORE.INTRA.SOLV>
0.033012

>  <SCORE.INTRA.SOLV.lig_0>
-19.064

>  <SCORE.INTRA.VDW>
0.13048

>  <SCORE.INTRA.VDW.0>
-0.0170964

>  <SCORE.INTRA.norm>
-0.0926887

>  <SCORE.RESTR>
0

>  <SCORE.RESTR.CAVITY>
0

>  <SCORE.RESTR.norm>
0

>  <SCORE.SYSTEM>
-20.8862

>  <SCORE.SYSTEM.CONST>
0

>  <SCORE.SYSTEM.DIHEDRAL>
4.95677

>  <SCORE.SYSTEM.POLAR>
-3.06216

>  <SCORE.SYSTEM.SOLV>
0.0627345

>  <SCORE.SYSTEM.VDW>
-5.39013

>  <SCORE.SYSTEM.norm>
-1.89875

>  <SCORE.heavy>
11

>  <SCORE.norm>
-4.72937

$$$$
P155774521
 OpenBabel12072022113D
libRbt.so/2013.1/901 2013/11/27
 14 14  0  0  0  0  0  0  0  0999 V2000
  -30.6459   18.1451  -18.3778 C   0  0  0  0  0  0  0  0  0  0  0  0
  -29.5778   17.7585  -17.6656 C   0  0  0  0  0  0  0  0  0  0  0  0
  -29.6755   17.5518  -16.2226 C   0  0  0  0  0  0  0  0  0  0  0  0
  -28.5397   17.3463  -15.5246 C   0  0  0  0  0  0  0  0  0  0  0  0
  -28.3705   17.2405  -14.1567 N   0  0  0  0  0  0  0  0  0  0  0  0
  -27.4286   18.0846  -13.5710 O   0  0  0  0  0  0  0  0  0  0  0  0
  -31.0041   17.5897  -15.6022 C   0  0  0  0  0  0  0  0  0  0  0  0
  -32.0816   17.9819  -16.2914 C   0  0  0  0  0  0  0  0  0  0  0  0
  -31.9642   18.3385  -17.7237 C   0  0  0  0  0  0  0  0  0  0  0  0
  -32.9285   18.7455  -18.3603 O   0  0  0  0  0  0  0  0  0  0  0  0
  -31.1421   17.1414  -14.3035 O   0  0  0  0  0  0  0  0  0  0  0  0
  -29.2749   17.2843  -13.6666 H   0  0  0  0  0  0  0  0  0  0  0  0
  -27.9657   18.8327  -13.2456 H   0  0  0  0  0  0  0  0  0  0  0  0
  -32.0502   17.3627  -14.0187 H   0  0  0  0  0  0  0  0  0  0  0  0
  1  2  2  0  0  0  0
  1  9  1  0  0  0  0
  2  3  1  0  0  0  0
  3  4  2  0  0  0  0
  3  7  1  0  0  0  0
  4  5  1  0  0  0  0
  5  6  1  0  0  0  0
  5 12  1  0  0  0  0
  6 13  1  0  0  0  0
  7  8  2  0  0  0  0
  7 11  1  0  0  0  0
  8  9  1  0  0  0  0
  9 10  2  0  0  0  0
 11 14  1  0  0  0  0
M  END
>  <CHROM.0>
-56.82246164,-60.90969397,-62.68473977,-43.23054360,-167.19161270,-55.71085752
-68.43331207,-55.17052715,-166.89399494

>  <CHROM.1>
-126.23192562,96.53282427,171.79657478,-30.28210713,17.81804681,-16.05000671
-2.34614785,-0.01357947,1.75038629

>  <Name>
P155774521

>  <RI>
0

>  <Rbt.Current_Directory>
/home/fstefaniak/projects/zuza/docking/adenine/4TZX

>  <Rbt.Executable>
rbdock ($Id: //depot/dev/client3/rdock/2013.1/src/exe/rbdock.cxx#4 $)

>  <Rbt.Library>
libRbt.so (2013.1, Build901 2013/11/27)

>  <Rbt.Parameter_File>
/home/fstefaniak/progs/rDock//data/scripts/dock_solv.prm

>  <Rbt.Receptor>
4tzx.prm

>  <SCORE>
-51.9022

>  <SCORE.INTER>
-29.9894

>  <SCORE.INTER.CONST>
1

>  <SCORE.INTER.POLAR>
-4.3672

>  <SCORE.INTER.ROT>
1

>  <SCORE.INTER.SOLV>
14.2187

>  <SCORE.INTER.VDW>
-14.4419

>  <SCORE.INTER.norm>
-2.72631

>  <SCORE.INTRA>
-1.09214

>  <SCORE.INTRA.DIHEDRAL>
-0.941431

>  <SCORE.INTRA.DIHEDRAL.0>
2.0052

>  <SCORE.INTRA.POLAR>
-0.247781

>  <SCORE.INTRA.POLAR.0>
-0.398033

>  <SCORE.INTRA.REPUL>
0

>  <SCORE.INTRA.REPUL.0>
0

>  <SCORE.INTRA.SOLV>
0.0549846

>  <SCORE.INTRA.SOLV.lig_0>
-19.064

>  <SCORE.INTRA.VDW>
0.193538

>  <SCORE.INTRA.VDW.0>
-0.0170964

>  <SCORE.INTRA.norm>
-0.0992855

>  <SCORE.RESTR>
0

>  <SCORE.RESTR.CAVITY>
0

>  <SCORE.RESTR.norm>
0

>  <SCORE.SYSTEM>
-20.8206

>  <SCORE.SYSTEM.CONST>
0

>  <SCORE.SYSTEM.DIHEDRAL>
5.44445

>  <SCORE.SYSTEM.POLAR>
-3.09784

>  <SCORE.SYSTEM.SOLV>
0.0188783

>  <SCORE.SYSTEM.VDW>
-5.37536

>  <SCORE.SYSTEM.norm>
-1.89278

>  <SCORE.heavy>
11

>  <SCORE.norm>
-4.71838

$$$$
P155774521
 OpenBabel12072022113D
libRbt.so/2013.1/901 2013/11/27
 14 14  0  0  0  0  0  0  0  0999 V2000
  -30.7079   18.2168  -18.3851 C   0  0  0  0  0  0  0  0  0  0  0  0
  -29.6279   17.8461  -17.6825 C   0  0  0  0  0  0  0  0  0  0  0  0
  -29.7165   17.6079  -16.2438 C   0  0  0  0  0  0  0  0  0  0  0  0
  -28.5739   17.4203  -15.5519 C   0  0  0  0  0  0  0  0  0  0  0  0
  -28.3987   17.2920  -14.1867 N   0  0  0  0  0  0  0  0  0  0  0  0
  -27.4149   18.0860  -13.6001 O   0  0  0  0  0  0  0  0  0  0  0  0
  -31.0443   17.5962  -15.6205 C   0  0  0  0  0  0  0  0  0  0  0  0
  -32.1338   17.9718  -16.2999 C   0  0  0  0  0  0  0  0  0  0  0  0
  -32.0296   18.3602  -17.7249 C   0  0  0  0  0  0  0  0  0  0  0  0
  -33.0064   18.7527  -18.3516 O   0  0  0  0  0  0  0  0  0  0  0  0
  -31.1668   17.1183  -14.3309 O   0  0  0  0  0  0  0  0  0  0  0  0
  -29.2963   17.3712  -13.6886 H   0  0  0  0  0  0  0  0  0  0  0  0
  -27.9097   18.8697  -13.2920 H   0  0  0  0  0  0  0  0  0  0  0  0
  -32.0963   17.2539  -14.0619 H   0  0  0  0  0  0  0  0  0  0  0  0
  1  2  2  0  0  0  0
  1  9  1  0  0  0  0
  2  3  1  0  0  0  0
  3  4  2  0  0  0  0
  3  7  1  0  0  0  0
  4  5  1  0  0  0  0
  5  6  1  0  0  0  0
  5 12  1  0  0  0  0
  6 13  1  0  0  0  0
  7  8  2  0  0  0  0
  7 11  1  0  0  0  0
  8  9  1  0  0  0  0
  9 10  2  0  0  0  0
 11 14  1  0  0  0  0
M  END
>  <CHROM.0>
-57.36987031,-61.04794446,-60.09386559,-42.74341644,-174.56507424,-59.65140717
-66.00546252,58.02230572,-169.43518593

>  <CHROM.1>
-130.47955050,94.48344814,175.53229947,-30.32242823,17.84693898,-16.06677752
-2.35937321,0.01239221,1.77565136

>  <Name>
P155774521

>  <RI>
0

>  <Rbt.Current_Directory>
/home/fstefaniak/projects/zuza/docking/adenine/4TZX

>  <Rbt.Executable>
rbdock ($Id: //depot/dev/client3/rdock/2013.1/src/exe/rbdock.cxx#4 $)

>  <Rbt.Library>
libRbt.so (2013.1, Build901 2013/11/27)

>  <Rbt.Parameter_File>
/home/fstefaniak/progs/rDock//data/scripts/dock_solv.prm

>  <Rbt.Receptor>
4tzx.prm

>  <SCORE>
-51.1438

>  <SCORE.INTER>
-29.9408

>  <SCORE.INTER.CONST>
1

>  <SCORE.INTER.POLAR>
-4.46033

>  <SCORE.INTER.ROT>
1

>  <SCORE.INTER.SOLV>
14.243

>  <SCORE.INTER.VDW>
-14.1071

>  <SCORE.INTER.norm>
-2.72189

>  <SCORE.INTRA>
-1.03704

>  <SCORE.INTRA.DIHEDRAL>
-1.06966

>  <SCORE.INTRA.DIHEDRAL.0>
2.0052

>  <SCORE.INTRA.POLAR>
-0.216163

>  <SCORE.INTRA.POLAR.0>
-0.398033

>  <SCORE.INTRA.REPUL>
0

>  <SCORE.INTRA.REPUL.0>
0

>  <SCORE.INTRA.SOLV>
0.0142208

>  <SCORE.INTRA.SOLV.lig_0>
-19.064

>  <SCORE.INTRA.VDW>
0.225633

>  <SCORE.INTRA.VDW.0>
-0.0170964

>  <SCORE.INTRA.norm>
-0.0942764

>  <SCORE.RESTR>
0

>  <SCORE.RESTR.CAVITY>
0

>  <SCORE.RESTR.norm>
0

>  <SCORE.SYSTEM>
-20.1659

>  <SCORE.SYSTEM.CONST>
0

>  <SCORE.SYSTEM.DIHEDRAL>
4.30289

>  <SCORE.SYSTEM.POLAR>
-3.06401

>  <SCORE.SYSTEM.SOLV>
-0.150641

>  <SCORE.SYSTEM.VDW>
-4.61464

>  <SCORE.SYSTEM.norm>
-1.83326

>  <SCORE.heavy>
11

>  <SCORE.norm>
-4.64943

$$$$
P155841029
 OpenBabel12072022113D
libRbt.so/2013.1/901 2013/11/27
 13 13  0  0  0  0  0  0  0  0999 V2000
  -28.3293   15.2796  -16.4705 C   0  0  0  0  0  0  0  0  0  0  0  0
  -26.8487   15.2059  -16.1175 C   0  0  0  0  0  0  0  0  0  0  0  0
  -26.2507   16.5992  -15.9346 C   0  0  0  0  0  0  0  0  0  0  0  0
  -27.0119   17.3570  -14.9262 N   0  0  0  0  0  0  0  0  0  0  0  0
  -28.4420   17.4870  -15.2579 C   0  0  0  0  0  0  0  0  0  0  0  0
  -29.0784   16.1104  -15.4360 C   0  0  0  0  0  0  0  0  0  0  0  0
  -26.4162   18.4068  -14.2563 C   0  0  0  0  0  0  0  0  0  0  0  0
  -25.4877   19.1663  -14.7641 N   0  0  0  0  0  0  0  0  0  0  0  0
  -25.1172   20.1828  -13.8661 O   0  0  0  0  0  0  0  0  0  0  0  0
  -26.9286   18.6247  -13.0135 N   0  0  0  0  0  0  0  0  0  0  0  0
  -25.4839   20.9738  -14.3020 H   0  0  0  0  0  0  0  0  0  0  0  0
  -26.8721   17.7908  -12.4447 H   0  0  0  0  0  0  0  0  0  0  0  0
  -27.8947   18.9211  -13.1251 H   0  0  0  0  0  0  0  0  0  0  0  0
  1  2  1  0  0  0  0
  1  6  1  0  0  0  0
  2  3  1  0  0  0  0
  3  4  1  0  0  0  0
  4  5  1  0  0  0  0
  4  7  1  0  0  0  0
  5  6  1  0  0  0  0
  7  8  2  0  0  0  0
  7 10  1  0  0  0  0
  8  9  1  0  0  0  0
  9 11  1  0  0  0  0
 10 12  1  0  0  0  0
 10 13  1  0  0  0  0
M  END
>  <CHROM.0>
-58.30835248,-171.03299374,62.12625598,-43.03585680,-57.44244831,-60.73852275
55.12596019,-59.28060842,-168.68466557

>  <CHROM.1>
30.63458586,56.19756336,-109.60272615,-26.96847575,17.50347973,-14.96325445
-2.09004172,0.30946267,0.67777238

>  <Name>
P155841029

>  <RI>
0

>  <Rbt.Current_Directory>
/home/fstefaniak/projects/zuza/docking/adenine/4TZX

>  <Rbt.Executable>
rbdock ($Id: //depot/dev/client3/rdock/2013.1/src/exe/rbdock.cxx#4 $)

>  <Rbt.Library>
libRbt.so (2013.1, Build901 2013/11/27)

>  <Rbt.Parameter_File>
/home/fstefaniak/progs/rDock//data/scripts/dock_solv.prm

>  <Rbt.Receptor>
4tzx.prm

>  <SCORE>
-50.5051

>  <SCORE.INTER>
-30.9168

>  <SCORE.INTER.CONST>
1

>  <SCORE.INTER.POLAR>
-5.24539

>  <SCORE.INTER.ROT>
2

>  <SCORE.INTER.SOLV>
10.8709

>  <SCORE.INTER.VDW>
-11.6835

>  <SCORE.INTER.norm>
-3.09168

>  <SCORE.INTRA>
-0.674102

>  <SCORE.INTRA.DIHEDRAL>
-1.73522

>  <SCORE.INTRA.DIHEDRAL.0>
2.95132

>  <SCORE.INTRA.POLAR>
0.224075

>  <SCORE.INTRA.POLAR.0>
-0.224075

>  <SCORE.INTRA.REPUL>
0

>  <SCORE.INTRA.REPUL.0>
0

>  <SCORE.INTRA.SOLV>
0.00139533

>  <SCORE.INTRA.SOLV.lig_0>
-10.5908

>  <SCORE.INTRA.VDW>
-0.569042

>  <SCORE.INTRA.VDW.0>
0.312495

>  <SCORE.INTRA.norm>
-0.0674102

>  <SCORE.RESTR>
0

>  <SCORE.RESTR.CAVITY>
0

>  <SCORE.RESTR.norm>
0

>  <SCORE.SYSTEM>
-18.9142

>  <SCORE.SYSTEM.CONST>
0

>  <SCORE.SYSTEM.DIHEDRAL>
4.53708

>  <SCORE.SYSTEM.POLAR>
-3.03942

>  <SCORE.SYSTEM.SOLV>
0.0504953

>  <SCORE.SYSTEM.VDW>
-4.00724

>  <SCORE.SYSTEM.norm>
-1.89142

>  <SCORE.heavy>
10

>  <SCORE.norm>
-5.05051

$$$$
P155841029
 OpenBabel12072022113D
libRbt.so/2013.1/901 2013/11/27
 13 13  0  0  0  0  0  0  0  0999 V2000
  -25.6888   13.8697  -16.9672 C   0  0  0  0  0  0  0  0  0  0  0  0
  -27.1455   13.4894  -17.2030 C   0  0  0  0  0  0  0  0  0  0  0  0
  -28.0707   14.1898  -16.2101 C   0  0  0  0  0  0  0  0  0  0  0  0
  -27.8748   15.6489  -16.2661 N   0  0  0  0  0  0  0  0  0  0  0  0
  -26.4842   16.0568  -15.9980 C   0  0  0  0  0  0  0  0  0  0  0  0
  -25.5291   15.3849  -16.9820 C   0  0  0  0  0  0  0  0  0  0  0  0
  -28.8791   16.4974  -15.8450 C   0  0  0  0  0  0  0  0  0  0  0  0
  -29.1899   16.7004  -14.5964 N   0  0  0  0  0  0  0  0  0  0  0  0
  -30.2135   17.6571  -14.4782 O   0  0  0  0  0  0  0  0  0  0  0  0
  -29.4956   17.1628  -16.8606 N   0  0  0  0  0  0  0  0  0  0  0  0
  -29.7605   18.3711  -13.9933 H   0  0  0  0  0  0  0  0  0  0  0  0
  -29.1059   16.9025  -17.7564 H   0  0  0  0  0  0  0  0  0  0  0  0
  -29.3805   18.1589  -16.6923 H   0  0  0  0  0  0  0  0  0  0  0  0
  1  2  1  0  0  0  0
  1  6  1  0  0  0  0
  2  3  1  0  0  0  0
  3  4  1  0  0  0  0
  4  5  1  0  0  0  0
  4  7  1  0  0  0  0
  5  6  1  0  0  0  0
  7  8  2  0  0  0  0
  7 10  1  0  0  0  0
  8  9  1  0  0  0  0
  9 11  1  0  0  0  0
 10 12  1  0  0  0  0
 10 13  1  0  0  0  0
M  END
>  <CHROM.0>
-59.63122516,-60.27013344,-64.57436260,-42.92062435,-58.14465396,-62.69821726
-67.86359972,-175.13975492,-168.97776722

>  <CHROM.1>
74.21150834,0.63822862,-116.48047028,-27.90768394,15.72639880,-16.12215448
-0.76385900,0.21090722,0.32204179

>  <Name>
P155841029

>  <RI>
0

>  <Rbt.Current_Directory>
/home/fstefaniak/projects/zuza/docking/adenine/4TZX

>  <Rbt.Executable>
rbdock ($Id: //depot/dev/client3/rdock/2013.1/src/exe/rbdock.cxx#4 $)

>  <Rbt.Library>
libRbt.so (2013.1, Build901 2013/11/27)

>  <Rbt.Parameter_File>
/home/fstefaniak/progs/rDock//data/scripts/dock_solv.prm

>  <Rbt.Receptor>
4tzx.prm

>  <SCORE>
-49.0308

>  <SCORE.INTER>
-26.5992

>  <SCORE.INTER.CONST>
1

>  <SCORE.INTER.POLAR>
-3.41239

>  <SCORE.INTER.ROT>
2

>  <SCORE.INTER.SOLV>
9.30782

>  <SCORE.INTER.VDW>
-14.3941

>  <SCORE.INTER.norm>
-2.65992

>  <SCORE.INTRA>
-1.28269

>  <SCORE.INTRA.DIHEDRAL>
-1.59721

>  <SCORE.INTRA.DIHEDRAL.0>
2.95132

>  <SCORE.INTRA.POLAR>
0.224075

>  <SCORE.INTRA.POLAR.0>
-0.224075

>  <SCORE.INTRA.REPUL>
0

>  <SCORE.INTRA.REPUL.0>
0

>  <SCORE.INTRA.SOLV>
-0.0283697

>  <SCORE.INTRA.SOLV.lig_0>
-10.5908

>  <SCORE.INTRA.VDW>
-1.23175

>  <SCORE.INTRA.VDW.0>
0.312495

>  <SCORE.INTRA.norm>
-0.128269

>  <SCORE.RESTR>
0

>  <SCORE.RESTR.CAVITY>
0

>  <SCORE.RESTR.norm>
0

>  <SCORE.SYSTEM>
-21.1489

>  <SCORE.SYSTEM.CONST>
0

>  <SCORE.SYSTEM.DIHEDRAL>
4.49768

>  <SCORE.SYSTEM.POLAR>
-3.05711

>  <SCORE.SYSTEM.SOLV>
0.0523751

>  <SCORE.SYSTEM.VDW>
-5.42558

>  <SCORE.SYSTEM.norm>
-2.11489

>  <SCORE.heavy>
10

>  <SCORE.norm>
-4.90308

$$$$
P155841029
 OpenBabel12072022113D
libRbt.so/2013.1/901 2013/11/27
 13 13  0  0  0  0  0  0  0  0999 V2000
  -25.4024   14.0188  -16.8492 C   0  0  0  0  0  0  0  0  0  0  0  0
  -26.8355   13.5747  -17.1159 C   0  0  0  0  0  0  0  0  0  0  0  0
  -27.8122   14.2363  -16.1459 C   0  0  0  0  0  0  0  0  0  0  0  0
  -27.6790   15.7024  -16.2023 N   0  0  0  0  0  0  0  0  0  0  0  0
  -26.3138   16.1713  -15.9050 C   0  0  0  0  0  0  0  0  0  0  0  0
  -25.3087   15.5395  -16.8654 C   0  0  0  0  0  0  0  0  0  0  0  0
  -28.7284   16.5071  -15.8063 C   0  0  0  0  0  0  0  0  0  0  0  0
  -29.0498   16.7320  -14.5641 N   0  0  0  0  0  0  0  0  0  0  0  0
  -30.1246   17.6342  -14.4742 O   0  0  0  0  0  0  0  0  0  0  0  0
  -29.3809   17.1052  -16.8412 N   0  0  0  0  0  0  0  0  0  0  0  0
  -29.7275   18.3631  -13.9631 H   0  0  0  0  0  0  0  0  0  0  0  0
  -29.1676   16.6499  -17.7183 H   0  0  0  0  0  0  0  0  0  0  0  0
  -29.0972   18.0814  -16.8626 H   0  0  0  0  0  0  0  0  0  0  0  0
  1  2  1  0  0  0  0
  1  6  1  0  0  0  0
  2  3  1  0  0  0  0
  3  4  1  0  0  0  0
  4  5  1  0  0  0  0
  4  7  1  0  0  0  0
  5  6  1  0  0  0  0
  7  8  2  0  0  0  0
  7 10  1  0  0  0  0
  8  9  1  0  0  0  0
  9 11  1  0  0  0  0
 10 12  1  0  0  0  0
 10 13  1  0  0  0  0
M  END
>  <CHROM.0>
-59.55339173,77.41476378,-64.29500275,-43.00143401,60.35029976,-57.25332397
-61.94009129,-56.99792058,-168.49502730

>  <CHROM.1>
76.42421210,16.98383886,-119.92675562,-27.71720952,15.77884161,-16.06096800
-0.72636739,0.15705044,0.36223104

>  <Name>
P155841029

>  <RI>
0

>  <Rbt.Current_Directory>
/home/fstefaniak/projects/zuza/docking/adenine/4TZX

>  <Rbt.Executable>
rbdock ($Id: //depot/dev/client3/rdock/2013.1/src/exe/rbdock.cxx#4 $)

>  <Rbt.Library>
libRbt.so (2013.1, Build901 2013/11/27)

>  <Rbt.Parameter_File>
/home/fstefaniak/progs/rDock//data/scripts/dock_solv.prm

>  <Rbt.Receptor>
4tzx.prm

>  <SCORE>
-46.7741

>  <SCORE.INTER>
-27.2093

>  <SCORE.INTER.CONST>
1

>  <SCORE.INTER.POLAR>
-4.07283

>  <SCORE.INTER.ROT>
2

>  <SCORE.INTER.SOLV>
9.48359

>  <SCORE.INTER.VDW>
-12.6579

>  <SCORE.INTER.norm>
-2.72093

>  <SCORE.INTRA>
-1.218

>  <SCORE.INTRA.DIHEDRAL>
-1.47478

>  <SCORE.INTRA.DIHEDRAL.0>
2.95132

>  <SCORE.INTRA.POLAR>
0.224075

>  <SCORE.INTRA.POLAR.0>
-0.224075

>  <SCORE.INTRA.REPUL>
0

>  <SCORE.INTRA.REPUL.0>
0

>  <SCORE.INTRA.SOLV>
-0.0352486

>  <SCORE.INTRA.SOLV.lig_0>
-10.5908

>  <SCORE.INTRA.VDW>
-1.22484

>  <SCORE.INTRA.VDW.0>
0.312495

>  <SCORE.INTRA.norm>
-0.1218

>  <SCORE.RESTR>
0

>  <SCORE.RESTR.CAVITY>
0

>  <SCORE.RESTR.norm>
0

>  <SCORE.SYSTEM>
-18.3468

>  <SCORE.SYSTEM.CONST>
0

>  <SCORE.SYSTEM.DIHEDRAL>
5.54714

>  <SCORE.SYSTEM.POLAR>
-3.06687

>  <SCORE.SYSTEM.SOLV>
0.00030701

>  <SCORE.SYSTEM.VDW>
-3.85745

>  <SCORE.SYSTEM.norm>
-1.83468

>  <SCORE.heavy>
10

>  <SCORE.norm>
-4.67741

$$$$
P156180563
 OpenBabel12072022113D
libRbt.so/2013.1/901 2013/11/27
 12 11  0  0  0  0  0  0  0  0999 V2000
  -29.8368   15.4445  -15.8988 C   0  0  0  0  0  0  0  0  0  0  0  0
  -30.1105   16.8922  -15.4677 C   0  0  0  0  0  0  0  0  0  0  0  0
  -28.7922   17.5225  -15.0013 C   0  0  0  0  0  0  0  0  0  0  0  0
  -30.7429   17.6311  -16.6845 C   0  0  0  0  0  0  0  0  0  0  0  0
  -30.1587   17.5742  -17.8473 N   0  0  0  0  0  0  0  0  0  0  0  0
  -30.8607   18.3382  -18.7943 O   0  0  0  0  0  0  0  0  0  0  0  0
  -31.9023   18.3391  -16.4567 N   0  0  0  0  0  0  0  0  0  0  0  0
  -31.0778   16.8072  -14.4025 O   0  0  0  0  0  0  0  0  0  0  0  0
  -31.3910   18.0424  -13.7698 C   0  0  0  0  0  0  0  0  0  0  0  0
  -31.4122   17.6634  -19.2322 H   0  0  0  0  0  0  0  0  0  0  0  0
  -32.1143   19.0367  -17.1631 H   0  0  0  0  0  0  0  0  0  0  0  0
  -32.6725   17.7274  -16.2081 H   0  0  0  0  0  0  0  0  0  0  0  0
  1  2  1  0  0  0  0
  2  3  1  0  0  0  0
  2  4  1  0  0  0  0
  2  8  1  0  0  0  0
  4  5  2  0  0  0  0
  4  7  1  0  0  0  0
  5  6  1  0  0  0  0
  6 10  1  0  0  0  0
  7 11  1  0  0  0  0
  7 12  1  0  0  0  0
  8  9  1  0  0  0  0
M  END
>  <CHROM.0>
-57.25157717,-177.80512904,-68.53206138,-42.89593581,-61.55872145,-176.93628960
-64.23384026,-60.08316255,-169.22690767

>  <CHROM.1>
-51.12149774,174.74241196,160.89714941,-96.49605136,-30.58023176,17.41621717
-16.05918134,-1.46457088,0.69056766,-1.39499341

>  <Name>
P156180563

>  <RI>
0

>  <Rbt.Current_Directory>
/home/fstefaniak/projects/zuza/docking/adenine/4TZX

>  <Rbt.Executable>
rbdock ($Id: //depot/dev/client3/rdock/2013.1/src/exe/rbdock.cxx#4 $)

>  <Rbt.Library>
libRbt.so (2013.1, Build901 2013/11/27)

>  <Rbt.Parameter_File>
/home/fstefaniak/progs/rDock//data/scripts/dock_solv.prm

>  <Rbt.Receptor>
4tzx.prm

>  <SCORE>
-52.7321

>  <SCORE.INTER>
-32.1043

>  <SCORE.INTER.CONST>
1

>  <SCORE.INTER.POLAR>
-4.80746

>  <SCORE.INTER.ROT>
3

>  <SCORE.INTER.SOLV>
9.48146

>  <SCORE.INTER.VDW>
-14.1385

>  <SCORE.INTER.norm>
-3.56715

>  <SCORE.INTRA>
0.162712

>  <SCORE.INTRA.DIHEDRAL>
-2.09697

>  <SCORE.INTRA.DIHEDRAL.0>
3.55613

>  <SCORE.INTRA.POLAR>
0.074004

>  <SCORE.INTRA.POLAR.0>
-0.0773217

>  <SCORE.INTRA.REPUL>
0

>  <SCORE.INTRA.REPUL.0>
0

>  <SCORE.INTRA.SOLV>
0.143553

>  <SCORE.INTRA.SOLV.lig_0>
-7.61666

>  <SCORE.INTRA.VDW>
0.887809

>  <SCORE.INTRA.VDW.0>
3.72047

>  <SCORE.INTRA.norm>
0.0180792

>  <SCORE.RESTR>
0

>  <SCORE.RESTR.CAVITY>
0

>  <SCORE.RESTR.norm>
0

>  <SCORE.SYSTEM>
-20.7905

>  <SCORE.SYSTEM.CONST>
0

>  <SCORE.SYSTEM.DIHEDRAL>
4.46866

>  <SCORE.SYSTEM.POLAR>
-3.05832

>  <SCORE.SYSTEM.SOLV>
0.0454105

>  <SCORE.SYSTEM.VDW>
-5.17063

>  <SCORE.SYSTEM.norm>
-2.31006

>  <SCORE.heavy>
9

>  <SCORE.norm>
-5.85913

$$$$
P156180563
 OpenBabel12072022113D
libRbt.so/2013.1/901 2013/11/27
 12 11  0  0  0  0  0  0  0  0999 V2000
  -29.8291   15.5240  -16.0042 C   0  0  0  0  0  0  0  0  0  0  0  0
  -30.0583   16.9634  -15.5223 C   0  0  0  0  0  0  0  0  0  0  0  0
  -28.7041   17.5747  -15.1418 C   0  0  0  0  0  0  0  0  0  0  0  0
  -30.7737   17.7334  -16.6720 C   0  0  0  0  0  0  0  0  0  0  0  0
  -31.8686   18.3930  -16.4216 N   0  0  0  0  0  0  0  0  0  0  0  0
  -32.3764   18.9770  -17.5940 O   0  0  0  0  0  0  0  0  0  0  0  0
  -30.2089   17.6575  -17.9260 N   0  0  0  0  0  0  0  0  0  0  0  0
  -30.9444   16.8605  -14.3900 O   0  0  0  0  0  0  0  0  0  0  0  0
  -31.2392   18.0908  -13.7389 C   0  0  0  0  0  0  0  0  0  0  0  0
  -32.2236   19.9265  -17.4314 H   0  0  0  0  0  0  0  0  0  0  0  0
  -30.8175   17.2659  -18.6379 H   0  0  0  0  0  0  0  0  0  0  0  0
  -29.7454   18.5229  -18.1815 H   0  0  0  0  0  0  0  0  0  0  0  0
  1  2  1  0  0  0  0
  2  3  1  0  0  0  0
  2  4  1  0  0  0  0
  2  8  1  0  0  0  0
  4  5  2  0  0  0  0
  4  7  1  0  0  0  0
  5  6  1  0  0  0  0
  6 10  1  0  0  0  0
  7 11  1  0  0  0  0
  7 12  1  0  0  0  0
  8  9  1  0  0  0  0
M  END
>  <CHROM.0>
-57.55724475,-175.61854491,-63.93824598,-42.62773104,58.84162682,-60.22365751
-67.50979344,-63.67265653,-168.77271877

>  <CHROM.1>
128.15058641,176.97484880,120.68816172,-110.43081443,-30.69316558,17.56061256
-15.95780622,-0.92157201,0.68419530,-1.47634854

>  <Name>
P156180563

>  <RI>
0

>  <Rbt.Current_Directory>
/home/fstefaniak/projects/zuza/docking/adenine/4TZX

>  <Rbt.Executable>
rbdock ($Id: //depot/dev/client3/rdock/2013.1/src/exe/rbdock.cxx#4 $)

>  <Rbt.Library>
libRbt.so (2013.1, Build901 2013/11/27)

>  <Rbt.Parameter_File>
/home/fstefaniak/progs/rDock//data/scripts/dock_solv.prm

>  <Rbt.Receptor>
4tzx.prm

>  <SCORE>
-52.6515

>  <SCORE.INTER>
-32.0629

>  <SCORE.INTER.CONST>
1

>  <SCORE.INTER.POLAR>
-4.97639

>  <SCORE.INTER.ROT>
3

>  <SCORE.INTER.SOLV>
9.64531

>  <SCORE.INTER.VDW>
-13.6024

>  <SCORE.INTER.norm>
-3.56254

>  <SCORE.INTRA>
-0.419633

>  <SCORE.INTRA.DIHEDRAL>
-1.98221

>  <SCORE.INTRA.DIHEDRAL.0>
3.55613

>  <SCORE.INTRA.POLAR>
0.0773217

>  <SCORE.INTRA.POLAR.0>
-0.0773217

>  <SCORE.INTRA.REPUL>
0

>  <SCORE.INTRA.REPUL.0>
0

>  <SCORE.INTRA.SOLV>
-0.0751633

>  <SCORE.INTRA.SOLV.lig_0>
-7.61666

>  <SCORE.INTRA.VDW>
0.346161

>  <SCORE.INTRA.VDW.0>
3.72047

>  <SCORE.INTRA.norm>
-0.0466259

>  <SCORE.RESTR>
0

>  <SCORE.RESTR.CAVITY>
0

>  <SCORE.RESTR.norm>
0

>  <SCORE.SYSTEM>
-20.169

>  <SCORE.SYSTEM.CONST>
0

>  <SCORE.SYSTEM.DIHEDRAL>
4.54132

>  <SCORE.SYSTEM.POLAR>
-3.07369

>  <SCORE.SYSTEM.SOLV>
-0.0592569

>  <SCORE.SYSTEM.VDW>
-4.69441

>  <SCORE.SYSTEM.norm>
-2.241

>  <SCORE.heavy>
9

>  <SCORE.norm>
-5.85017

$$$$
P156180563
 OpenBabel12072022113D
libRbt.so/2013.1/901 2013/11/27
 12 11  0  0  0  0  0  0  0  0999 V2000
  -29.7568   15.5308  -16.0274 C   0  0  0  0  0  0  0  0  0  0  0  0
  -30.0559   16.9511  -15.5273 C   0  0  0  0  0  0  0  0  0  0  0  0
  -28.7414   17.5983  -15.0737 C   0  0  0  0  0  0  0  0  0  0  0  0
  -30.7451   17.7220  -16.6924 C   0  0  0  0  0  0  0  0  0  0  0  0
  -31.7896   18.4606  -16.4470 N   0  0  0  0  0  0  0  0  0  0  0  0
  -32.2841   19.0315  -17.6314 O   0  0  0  0  0  0  0  0  0  0  0  0
  -30.2138   17.5618  -17.9531 N   0  0  0  0  0  0  0  0  0  0  0  0
  -30.9875   16.7946  -14.4385 O   0  0  0  0  0  0  0  0  0  0  0  0
  -31.3672   18.0021  -13.7890 C   0  0  0  0  0  0  0  0  0  0  0  0
  -32.1795   19.9854  -17.4570 H   0  0  0  0  0  0  0  0  0  0  0  0
  -30.8903   17.3020  -18.6641 H   0  0  0  0  0  0  0  0  0  0  0  0
  -29.5988   18.3295  -18.2012 H   0  0  0  0  0  0  0  0  0  0  0  0
  1  2  1  0  0  0  0
  2  3  1  0  0  0  0
  2  4  1  0  0  0  0
  2  8  1  0  0  0  0
  4  5  2  0  0  0  0
  4  7  1  0  0  0  0
  5  6  1  0  0  0  0
  6 10  1  0  0  0  0
  7 11  1  0  0  0  0
  7 12  1  0  0  0  0
  8  9  1  0  0  0  0
M  END
>  <CHROM.0>
-55.90527826,-174.59016089,-54.41886207,-42.36686028,-54.69275925,-61.12140683
-63.61954145,-55.68768026,-168.49743304

>  <CHROM.1>
135.73226507,177.83697568,128.39848306,-117.92250419,-30.68623849,17.54670870
-15.97724124,-0.95233701,0.69894601,-1.44188278

>  <Name>
P156180563

>  <RI>
0

>  <Rbt.Current_Directory>
/home/fstefaniak/projects/zuza/docking/adenine/4TZX

>  <Rbt.Executable>
rbdock ($Id: //depot/dev/client3/rdock/2013.1/src/exe/rbdock.cxx#4 $)

>  <Rbt.Library>
libRbt.so (2013.1, Build901 2013/11/27)

>  <Rbt.Parameter_File>
/home/fstefaniak/progs/rDock//data/scripts/dock_solv.prm

>  <Rbt.Receptor>
4tzx.prm

>  <SCORE>
-52.6235

>  <SCORE.INTER>
-32.0907

>  <SCORE.INTER.CONST>
1

>  <SCORE.INTER.POLAR>
-4.98543

>  <SCORE.INTER.ROT>
3

>  <SCORE.INTER.SOLV>
9.69345

>  <SCORE.INTER.VDW>
-13.6068

>  <SCORE.INTER.norm>
-3.56563

>  <SCORE.INTRA>
0.0662334

>  <SCORE.INTRA.DIHEDRAL>
-1.81804

>  <SCORE.INTRA.DIHEDRAL.0>
3.55613

>  <SCORE.INTRA.POLAR>
0.0773217

>  <SCORE.INTRA.POLAR.0>
-0.0773217

>  <SCORE.INTRA.REPUL>
0

>  <SCORE.INTRA.REPUL.0>
0

>  <SCORE.INTRA.SOLV>
-0.074462

>  <SCORE.INTRA.SOLV.lig_0>
-7.61666

>  <SCORE.INTRA.VDW>
0.749592

>  <SCORE.INTRA.VDW.0>
3.72047

>  <SCORE.INTRA.norm>
0.00735927

>  <SCORE.RESTR>
0

>  <SCORE.RESTR.CAVITY>
0

>  <SCORE.RESTR.norm>
0

>  <SCORE.SYSTEM>
-20.5991

>  <SCORE.SYSTEM.CONST>
0

>  <SCORE.SYSTEM.DIHEDRAL>
4.72899

>  <SCORE.SYSTEM.POLAR>
-3.14297

>  <SCORE.SYSTEM.SOLV>
0.197819

>  <SCORE.SYSTEM.VDW>
-4.89843

>  <SCORE.SYSTEM.norm>
-2.28879

>  <SCORE.heavy>
9

>  <SCORE.norm>
-5.84706

$$$$
P156234412
 OpenBabel12072022113D
libRbt.so/2013.1/901 2013/11/27
 10  9  0  0  0  0  0  0  0  0999 V2000
  -29.5424   16.3955  -16.6149 C   0  0  0  0  0  0  0  0  0  0  0  0
  -29.5472   17.2340  -15.3716 C   0  0  0  0  0  0  0  0  0  0  0  0
  -28.5682   17.1590  -14.5190 N   0  0  0  0  0  0  0  0  0  0  0  0
  -28.7897   17.9884  -13.4133 O   0  0  0  0  0  0  0  0  0  0  0  0
  -30.7790   18.0763  -15.1468 C   0  0  0  0  0  0  0  0  0  0  0  0
  -31.2382   18.9218  -16.0218 N   0  0  0  0  0  0  0  0  0  0  0  0
  -30.4172   18.9810  -17.1540 O   0  0  0  0  0  0  0  0  0  0  0  0
  -31.5273   17.8222  -13.8716 C   0  0  0  0  0  0  0  0  0  0  0  0
  -28.7733   17.3566  -12.6698 H   0  0  0  0  0  0  0  0  0  0  0  0
  -29.9903   19.8534  -17.0589 H   0  0  0  0  0  0  0  0  0  0  0  0
  1  2  1  0  0  0  0
  2  3  2  0  0  0  0
  2  5  1  0  0  0  0
  3  4  1  0  0  0  0
  4  9  1  0  0  0  0
  5  6  2  0  0  0  0
  5  8  1  0  0  0  0
  6  7  1  0  0  0  0
  7 10  1  0  0  0  0
M  END
>  <CHROM.0>
-59.49733467,-61.36082549,-65.49503258,-42.94319260,-57.56339708,-55.85496850
-65.47299186,-59.04693538,-168.33869472

>  <CHROM.1>
-54.60405587,121.19392706,-108.10406080,-30.02886415,17.85172237,-15.25764649
-2.18372706,-0.60419648,1.55793420

>  <Name>
P156234412

>  <RI>
0

>  <Rbt.Current_Directory>
/home/fstefaniak/projects/zuza/docking/adenine/4TZX

>  <Rbt.Executable>
rbdock ($Id: //depot/dev/client3/rdock/2013.1/src/exe/rbdock.cxx#4 $)

>  <Rbt.Library>
libRbt.so (2013.1, Build901 2013/11/27)

>  <Rbt.Parameter_File>
/home/fstefaniak/progs/rDock//data/scripts/dock_solv.prm

>  <Rbt.Receptor>
4tzx.prm

>  <SCORE>
-50.6131

>  <SCORE.INTER>
-28.207

>  <SCORE.INTER.CONST>
1

>  <SCORE.INTER.POLAR>
-3.83205

>  <SCORE.INTER.ROT>
1

>  <SCORE.INTER.SOLV>
7.81444

>  <SCORE.INTER.VDW>
-12.9027

>  <SCORE.INTER.norm>
-3.52588

>  <SCORE.INTRA>
-1.33179

>  <SCORE.INTRA.DIHEDRAL>
-6.7555

>  <SCORE.INTRA.DIHEDRAL.0>
15.0649

>  <SCORE.INTRA.POLAR>
0

>  <SCORE.INTRA.POLAR.0>
0

>  <SCORE.INTRA.REPUL>
0

>  <SCORE.INTRA.REPUL.0>
0

>  <SCORE.INTRA.SOLV>
-0.123732

>  <SCORE.INTRA.SOLV.lig_0>
-6.51036

>  <SCORE.INTRA.VDW>
2.10783

>  <SCORE.INTRA.VDW.0>
-0.726131

>  <SCORE.INTRA.norm>
-0.166473

>  <SCORE.RESTR>
0

>  <SCORE.RESTR.CAVITY>
0

>  <SCORE.RESTR.norm>
0

>  <SCORE.SYSTEM>
-21.0743

>  <SCORE.SYSTEM.CONST>
0

>  <SCORE.SYSTEM.DIHEDRAL>
4.41874

>  <SCORE.SYSTEM.POLAR>
-3.07228

>  <SCORE.SYSTEM.SOLV>
0.203357

>  <SCORE.SYSTEM.VDW>
-5.3493

>  <SCORE.SYSTEM.norm>
-2.63429

>  <SCORE.heavy>
8

>  <SCORE.norm>
-6.32664

$$$$
P156234412
 OpenBabel12072022113D
libRbt.so/2013.1/901 2013/11/27
 10  9  0  0  0  0  0  0  0  0999 V2000
  -31.4595   17.8345  -13.8567 C   0  0  0  0  0  0  0  0  0  0  0  0
  -30.7445   18.0947  -15.1489 C   0  0  0  0  0  0  0  0  0  0  0  0
  -31.2225   18.9435  -16.0104 N   0  0  0  0  0  0  0  0  0  0  0  0
  -30.4281   19.0044  -17.1615 O   0  0  0  0  0  0  0  0  0  0  0  0
  -29.5168   17.2558  -15.4060 C   0  0  0  0  0  0  0  0  0  0  0  0
  -28.5127   17.1844  -14.5825 N   0  0  0  0  0  0  0  0  0  0  0  0
  -28.7009   18.0190  -13.4746 O   0  0  0  0  0  0  0  0  0  0  0  0
  -29.5442   16.4096  -16.6445 C   0  0  0  0  0  0  0  0  0  0  0  0
  -29.9805   19.8659  -17.0629 H   0  0  0  0  0  0  0  0  0  0  0  0
  -28.6760   17.3889  -12.7299 H   0  0  0  0  0  0  0  0  0  0  0  0
  1  2  1  0  0  0  0
  2  3  2  0  0  0  0
  2  5  1  0  0  0  0
  3  4  1  0  0  0  0
  4  9  1  0  0  0  0
  5  6  2  0  0  0  0
  5  8  1  0  0  0  0
  6  7  1  0  0  0  0
  7 10  1  0  0  0  0
M  END
>  <CHROM.0>
-55.44289822,-59.52400210,-63.69153584,-43.68754943,-55.20534974,-60.83832818
-64.96294900,-174.62179184,-168.84935337

>  <CHROM.1>
-55.17080143,-106.75187716,120.37548827,-29.99336560,17.87281734,-15.27965974
0.92241823,-0.60122335,1.53953645

>  <Name>
P156234412

>  <RI>
0

>  <Rbt.Current_Directory>
/home/fstefaniak/projects/zuza/docking/adenine/4TZX

>  <Rbt.Executable>
rbdock ($Id: //depot/dev/client3/rdock/2013.1/src/exe/rbdock.cxx#4 $)

>  <Rbt.Library>
libRbt.so (2013.1, Build901 2013/11/27)

>  <Rbt.Parameter_File>
/home/fstefaniak/progs/rDock//data/scripts/dock_solv.prm

>  <Rbt.Receptor>
4tzx.prm

>  <SCORE>
-50.5268

>  <SCORE.INTER>
-28.0712

>  <SCORE.INTER.CONST>
1

>  <SCORE.INTER.POLAR>
-3.87383

>  <SCORE.INTER.ROT>
1

>  <SCORE.INTER.SOLV>
7.76238

>  <SCORE.INTER.VDW>
-12.6555

>  <SCORE.INTER.norm>
-3.5089

>  <SCORE.INTRA>
-1.41903

>  <SCORE.INTRA.DIHEDRAL>
-6.70222

>  <SCORE.INTRA.DIHEDRAL.0>
15.0649

>  <SCORE.INTRA.POLAR>
0

>  <SCORE.INTRA.POLAR.0>
0

>  <SCORE.INTRA.REPUL>
0

>  <SCORE.INTRA.REPUL.0>
0

>  <SCORE.INTRA.SOLV>
-0.123418

>  <SCORE.INTRA.SOLV.lig_0>
-6.51036

>  <SCORE.INTRA.VDW>
1.99379

>  <SCORE.INTRA.VDW.0>
-0.726131

>  <SCORE.INTRA.norm>
-0.177379

>  <SCORE.RESTR>
0

>  <SCORE.RESTR.CAVITY>
0

>  <SCORE.RESTR.norm>
0

>  <SCORE.SYSTEM>
-21.0366

>  <SCORE.SYSTEM.CONST>
0

>  <SCORE.SYSTEM.DIHEDRAL>
4.37916

>  <SCORE.SYSTEM.POLAR>
-3.0837

>  <SCORE.SYSTEM.SOLV>
0.0747814

>  <SCORE.SYSTEM.VDW>
-5.23004

>  <SCORE.SYSTEM.norm>
-2.62958

>  <SCORE.heavy>
8

>  <SCORE.norm>
-6.31586

$$$$
P156234412
 OpenBabel12072022113D
libRbt.so/2013.1/901 2013/11/27
 10  9  0  0  0  0  0  0  0  0999 V2000
  -31.4772   17.8591  -13.8148 C   0  0  0  0  0  0  0  0  0  0  0  0
  -30.7664   18.0906  -15.1148 C   0  0  0  0  0  0  0  0  0  0  0  0
  -31.2296   18.9444  -15.9794 N   0  0  0  0  0  0  0  0  0  0  0  0
  -30.4434   18.9756  -17.1373 O   0  0  0  0  0  0  0  0  0  0  0  0
  -29.5626   17.2185  -15.3747 C   0  0  0  0  0  0  0  0  0  0  0  0
  -28.5426   17.1473  -14.5709 N   0  0  0  0  0  0  0  0  0  0  0  0
  -28.6890   18.0153  -13.4826 O   0  0  0  0  0  0  0  0  0  0  0  0
  -29.6349   16.3402  -16.5888 C   0  0  0  0  0  0  0  0  0  0  0  0
  -29.9463   19.8087  -17.0316 H   0  0  0  0  0  0  0  0  0  0  0  0
  -28.7192   17.4002  -12.7256 H   0  0  0  0  0  0  0  0  0  0  0  0
  1  2  1  0  0  0  0
  2  3  2  0  0  0  0
  2  5  1  0  0  0  0
  3  4  1  0  0  0  0
  4  9  1  0  0  0  0
  5  6  2  0  0  0  0
  5  8  1  0  0  0  0
  6  7  1  0  0  0  0
  7 10  1  0  0  0  0
M  END
>  <CHROM.0>
-59.50268402,56.89740966,-66.29727226,-43.61948367,-177.89088830,-59.84730467
-66.18118271,-177.69503684,-168.65942165

>  <CHROM.1>
-56.51658703,-104.55017919,116.87474197,-30.01939949,17.85348208,-15.25255821
0.89472924,-0.62401122,1.51137142

>  <Name>
P156234412

>  <RI>
0

>  <Rbt.Current_Directory>
/home/fstefaniak/projects/zuza/docking/adenine/4TZX

>  <Rbt.Executable>
rbdock ($Id: //depot/dev/client3/rdock/2013.1/src/exe/rbdock.cxx#4 $)

>  <Rbt.Library>
libRbt.so (2013.1, Build901 2013/11/27)

>  <Rbt.Parameter_File>
/home/fstefaniak/progs/rDock//data/scripts/dock_solv.prm

>  <Rbt.Receptor>
4tzx.prm

>  <SCORE>
-49.9666

>  <SCORE.INTER>
-27.8747

>  <SCORE.INTER.CONST>
1

>  <SCORE.INTER.POLAR>
-3.8385

>  <SCORE.INTER.ROT>
1

>  <SCORE.INTER.SOLV>
7.78024

>  <SCORE.INTER.VDW>
-12.6482

>  <SCORE.INTER.norm>
-3.48434

>  <SCORE.INTRA>
-1.61349

>  <SCORE.INTRA.DIHEDRAL>
-6.59781

>  <SCORE.INTRA.DIHEDRAL.0>
15.0649

>  <SCORE.INTRA.POLAR>
0

>  <SCORE.INTRA.POLAR.0>
0

>  <SCORE.INTRA.REPUL>
0

>  <SCORE.INTRA.REPUL.0>
0

>  <SCORE.INTRA.SOLV>
-0.122964

>  <SCORE.INTRA.SOLV.lig_0>
-6.51036

>  <SCORE.INTRA.VDW>
1.7469

>  <SCORE.INTRA.VDW.0>
-0.726131

>  <SCORE.INTRA.norm>
-0.201686

>  <SCORE.RESTR>
0

>  <SCORE.RESTR.CAVITY>
0

>  <SCORE.RESTR.norm>
0

>  <SCORE.SYSTEM>
-20.4783

>  <SCORE.SYSTEM.CONST>
0

>  <SCORE.SYSTEM.DIHEDRAL>
4.34426

>  <SCORE.SYSTEM.POLAR>
-3.04307

>  <SCORE.SYSTEM.SOLV>
-0.0531366

>  <SCORE.SYSTEM.VDW>
-4.93904

>  <SCORE.SYSTEM.norm>
-2.55979

>  <SCORE.heavy>
8

>  <SCORE.norm>
-6.24582

$$$$
P156238498
 OpenBabel12072022113D
libRbt.so/2013.1/901 2013/11/27
 13 13  0  0  0  0  0  0  0  0999 V2000
  -32.6672   18.5380  -13.2583 H   0  0  0  0  0  0  0  0  0  0  0  0
  -31.7977   18.4168  -13.7893 N   0  0  0  0  0  0  0  0  0  0  0  0
  -31.4782   17.2208  -13.8658 N   0  0  0  0  0  0  0  0  0  0  0  0
  -30.3338   17.2059  -14.5645 N   0  0  0  0  0  0  0  0  0  0  0  0
  -30.3341   17.6391  -15.9074 C   0  0  0  0  0  0  0  0  0  0  0  0
  -30.9358   18.8543  -16.2761 C   0  0  0  0  0  0  0  0  0  0  0  0
  -31.0023   19.2570  -17.6135 C   0  0  0  0  0  0  0  0  0  0  0  0
  -30.4825   18.4432  -18.6156 C   0  0  0  0  0  0  0  0  0  0  0  0
  -29.8982   17.2228  -18.2824 C   0  0  0  0  0  0  0  0  0  0  0  0
  -29.8296   16.8214  -16.9391 C   0  0  0  0  0  0  0  0  0  0  0  0
  -29.1823   15.5190  -16.6557 C   0  0  0  0  0  0  0  0  0  0  0  0
  -28.9698   15.1188  -15.5166 O   0  0  0  0  0  0  0  0  0  0  0  0
  -29.4880   17.4508  -14.0396 H   0  0  0  0  0  0  0  0  0  0  0  0
  1  2  1  0  0  0  0
  2  3  2  0  0  0  0
  3  4  1  0  0  0  0
  4  5  1  0  0  0  0
  4 13  1  0  0  0  0
  5  6  2  0  0  0  0
  5 10  1  0  0  0  0
  6  7  1  0  0  0  0
  7  8  2  0  0  0  0
  8  9  1  0  0  0  0
  9 10  2  0  0  0  0
 10 11  1  0  0  0  0
 11 12  2  0  0  0  0
M  END
>  <CHROM.0>
-61.96436039,-59.25607707,-65.67452887,-43.48863804,-61.82724674,-64.88129108
-68.44939952,-60.70358665,-167.10931237

>  <CHROM.1>
-64.10782153,48.73429382,-4.87784970,-30.38725949,17.39685006,-16.09138584
2.01603069,-0.95960091,2.00226382

>  <Name>
P156238498

>  <RI>
0

>  <Rbt.Current_Directory>
/home/fstefaniak/projects/zuza/docking/adenine/4TZX

>  <Rbt.Executable>
rbdock ($Id: //depot/dev/client3/rdock/2013.1/src/exe/rbdock.cxx#4 $)

>  <Rbt.Library>
libRbt.so (2013.1, Build901 2013/11/27)

>  <Rbt.Parameter_File>
/home/fstefaniak/progs/rDock//data/scripts/dock_solv.prm

>  <Rbt.Receptor>
4tzx.prm

>  <SCORE>
-51.7394

>  <SCORE.INTER>
-31.2169

>  <SCORE.INTER.CONST>
1

>  <SCORE.INTER.POLAR>
-3.11374

>  <SCORE.INTER.ROT>
3

>  <SCORE.INTER.SOLV>
11.2407

>  <SCORE.INTER.VDW>
-19.7791

>  <SCORE.INTER.norm>
-2.8379

>  <SCORE.INTRA>
0.561645

>  <SCORE.INTRA.DIHEDRAL>
-0.43302

>  <SCORE.INTRA.DIHEDRAL.0>
1.08068

>  <SCORE.INTRA.POLAR>
0.0321666

>  <SCORE.INTRA.POLAR.0>
-0.0321666

>  <SCORE.INTRA.REPUL>
0

>  <SCORE.INTRA.REPUL.0>
0

>  <SCORE.INTRA.SOLV>
0.115925

>  <SCORE.INTRA.SOLV.lig_0>
-10.7482

>  <SCORE.INTRA.VDW>
0.610826

>  <SCORE.INTRA.VDW.0>
-0.336416

>  <SCORE.INTRA.norm>
0.0510587

>  <SCORE.RESTR>
0

>  <SCORE.RESTR.CAVITY>
0

>  <SCORE.RESTR.norm>
0

>  <SCORE.SYSTEM>
-21.0841

>  <SCORE.SYSTEM.CONST>
0

>  <SCORE.SYSTEM.DIHEDRAL>
4.68932

>  <SCORE.SYSTEM.POLAR>
-3.03456

>  <SCORE.SYSTEM.SOLV>
0.163978

>  <SCORE.SYSTEM.VDW>
-5.55862

>  <SCORE.SYSTEM.norm>
-1.91674

>  <SCORE.heavy>
11

>  <SCORE.norm>
-4.70358

$$$$
P156238498
 OpenBabel12072022113D
libRbt.so/2013.1/901 2013/11/27
 13 13  0  0  0  0  0  0  0  0999 V2000
  -32.6811   18.4980  -13.2877 H   0  0  0  0  0  0  0  0  0  0  0  0
  -31.8074   18.3940  -13.8154 N   0  0  0  0  0  0  0  0  0  0  0  0
  -31.4491   17.2076  -13.8664 N   0  0  0  0  0  0  0  0  0  0  0  0
  -30.3039   17.2152  -14.5638 N   0  0  0  0  0  0  0  0  0  0  0  0
  -30.3139   17.6338  -15.9113 C   0  0  0  0  0  0  0  0  0  0  0  0
  -30.9048   18.8521  -16.2867 C   0  0  0  0  0  0  0  0  0  0  0  0
  -30.9813   19.2410  -17.6278 C   0  0  0  0  0  0  0  0  0  0  0  0
  -30.4827   18.4100  -18.6265 C   0  0  0  0  0  0  0  0  0  0  0  0
  -29.9096   17.1861  -18.2862 C   0  0  0  0  0  0  0  0  0  0  0  0
  -29.8308   16.7986  -16.9394 C   0  0  0  0  0  0  0  0  0  0  0  0
  -29.1963   15.4916  -16.6488 C   0  0  0  0  0  0  0  0  0  0  0  0
  -28.8603   15.1549  -15.5188 O   0  0  0  0  0  0  0  0  0  0  0  0
  -29.4655   17.4880  -14.0407 H   0  0  0  0  0  0  0  0  0  0  0  0
  1  2  1  0  0  0  0
  2  3  2  0  0  0  0
  3  4  1  0  0  0  0
  4  5  1  0  0  0  0
  4 13  1  0  0  0  0
  5  6  2  0  0  0  0
  5 10  1  0  0  0  0
  6  7  1  0  0  0  0
  7  8  2  0  0  0  0
  8  9  1  0  0  0  0
  9 10  2  0  0  0  0
 10 11  1  0  0  0  0
 11 12  2  0  0  0  0
M  END
>  <CHROM.0>
-63.38345785,-62.27424875,-66.80184481,-43.82806738,-62.42834517,-67.48070189
-65.77658244,-61.85922522,-169.39850531

>  <CHROM.1>
-63.42081010,51.04852007,-11.99967946,-30.36696322,17.38585876,-16.09746166
2.00428991,-0.95040221,1.98336640

>  <Name>
P156238498

>  <RI>
0

>  <Rbt.Current_Directory>
/home/fstefaniak/projects/zuza/docking/adenine/4TZX

>  <Rbt.Executable>
rbdock ($Id: //depot/dev/client3/rdock/2013.1/src/exe/rbdock.cxx#4 $)

>  <Rbt.Library>
libRbt.so (2013.1, Build901 2013/11/27)

>  <Rbt.Parameter_File>
/home/fstefaniak/progs/rDock//data/scripts/dock_solv.prm

>  <Rbt.Receptor>
4tzx.prm

>  <SCORE>
-51.7323

>  <SCORE.INTER>
-31.3622

>  <SCORE.INTER.CONST>
1

>  <SCORE.INTER.POLAR>
-3.11604

>  <SCORE.INTER.ROT>
3

>  <SCORE.INTER.SOLV>
11.176

>  <SCORE.INTER.VDW>
-19.8466

>  <SCORE.INTER.norm>
-2.85111

>  <SCORE.INTRA>
0.760954

>  <SCORE.INTRA.DIHEDRAL>
0.0668084

>  <SCORE.INTRA.DIHEDRAL.0>
1.08068

>  <SCORE.INTRA.POLAR>
0.0321666

>  <SCORE.INTRA.POLAR.0>
-0.0321666

>  <SCORE.INTRA.REPUL>
0

>  <SCORE.INTRA.REPUL.0>
0

>  <SCORE.INTRA.SOLV>
0.104415

>  <SCORE.INTRA.SOLV.lig_0>
-10.7482

>  <SCORE.INTRA.VDW>
0.565976

>  <SCORE.INTRA.VDW.0>
-0.336416

>  <SCORE.INTRA.norm>
0.0691776

>  <SCORE.RESTR>
0

>  <SCORE.RESTR.CAVITY>
0

>  <SCORE.RESTR.norm>
0

>  <SCORE.SYSTEM>
-21.1311

>  <SCORE.SYSTEM.CONST>
0

>  <SCORE.SYSTEM.DIHEDRAL>
4.53399

>  <SCORE.SYSTEM.POLAR>
-3.0036

>  <SCORE.SYSTEM.SOLV>
0.156517

>  <SCORE.SYSTEM.VDW>
-5.6389

>  <SCORE.SYSTEM.norm>
-1.92101

>  <SCORE.heavy>
11

>  <SCORE.norm>
-4.70294

$$$$
P156238498
 OpenBabel12072022113D
libRbt.so/2013.1/901 2013/11/27
 13 13  0  0  0  0  0  0  0  0999 V2000
  -32.5792   18.6046  -13.2244 H   0  0  0  0  0  0  0  0  0  0  0  0
  -31.7254   18.4604  -13.7747 N   0  0  0  0  0  0  0  0  0  0  0  0
  -31.4199   17.2595  -13.8283 N   0  0  0  0  0  0  0  0  0  0  0  0
  -30.2948   17.2144  -14.5563 N   0  0  0  0  0  0  0  0  0  0  0  0
  -30.3223   17.6308  -15.9042 C   0  0  0  0  0  0  0  0  0  0  0  0
  -30.9504   18.8308  -16.2787 C   0  0  0  0  0  0  0  0  0  0  0  0
  -31.0436   19.2156  -17.6198 C   0  0  0  0  0  0  0  0  0  0  0  0
  -30.5245   18.3985  -18.6196 C   0  0  0  0  0  0  0  0  0  0  0  0
  -29.9141   17.1925  -18.2802 C   0  0  0  0  0  0  0  0  0  0  0  0
  -29.8188   16.8091  -16.9333 C   0  0  0  0  0  0  0  0  0  0  0  0
  -29.1448   15.5218  -16.6437 C   0  0  0  0  0  0  0  0  0  0  0  0
  -28.9551   15.1152  -15.5028 O   0  0  0  0  0  0  0  0  0  0  0  0
  -29.4311   17.4499  -14.0568 H   0  0  0  0  0  0  0  0  0  0  0  0
  1  2  1  0  0  0  0
  2  3  2  0  0  0  0
  3  4  1  0  0  0  0
  4  5  1  0  0  0  0
  4 13  1  0  0  0  0
  5  6  2  0  0  0  0
  5 10  1  0  0  0  0
  6  7  1  0  0  0  0
  7  8  2  0  0  0  0
  8  9  1  0  0  0  0
  9 10  2  0  0  0  0
 10 11  1  0  0  0  0
 11 12  2  0  0  0  0
M  END
>  <CHROM.0>
-61.93714041,-61.09791903,-65.41922284,-44.73103742,-52.34712269,-58.31869831
-67.42952909,-60.81718473,-169.35177281

>  <CHROM.1>
-63.20440332,46.57173779,-1.96954229,-30.37361261,17.39180737,-16.08330394
1.98898635,-0.96293273,1.95566255

>  <Name>
P156238498

>  <RI>
0

>  <Rbt.Current_Directory>
/home/fstefaniak/projects/zuza/docking/adenine/4TZX

>  <Rbt.Executable>
rbdock ($Id: //depot/dev/client3/rdock/2013.1/src/exe/rbdock.cxx#4 $)

>  <Rbt.Library>
libRbt.so (2013.1, Build901 2013/11/27)

>  <Rbt.Parameter_File>
/home/fstefaniak/progs/rDock//data/scripts/dock_solv.prm

>  <Rbt.Receptor>
4tzx.prm

>  <SCORE>
-51.7003

>  <SCORE.INTER>
-31.3709

>  <SCORE.INTER.CONST>
1

>  <SCORE.INTER.POLAR>
-3.13669

>  <SCORE.INTER.ROT>
3

>  <SCORE.INTER.SOLV>
11.1715

>  <SCORE.INTER.VDW>
-19.7822

>  <SCORE.INTER.norm>
-2.8519

>  <SCORE.INTRA>
0.678691

>  <SCORE.INTRA.DIHEDRAL>
-0.519924

>  <SCORE.INTRA.DIHEDRAL.0>
1.08068

>  <SCORE.INTRA.POLAR>
0.0321666

>  <SCORE.INTRA.POLAR.0>
-0.0321666

>  <SCORE.INTRA.REPUL>
0

>  <SCORE.INTRA.REPUL.0>
0

>  <SCORE.INTRA.SOLV>
0.122478

>  <SCORE.INTRA.SOLV.lig_0>
-10.7482

>  <SCORE.INTRA.VDW>
0.768047

>  <SCORE.INTRA.VDW.0>
-0.336416

>  <SCORE.INTRA.norm>
0.0616991

>  <SCORE.RESTR>
0

>  <SCORE.RESTR.CAVITY>
0

>  <SCORE.RESTR.norm>
0

>  <SCORE.SYSTEM>
-21.008

>  <SCORE.SYSTEM.CONST>
0

>  <SCORE.SYSTEM.DIHEDRAL>
4.36769

>  <SCORE.SYSTEM.POLAR>
-3.01008

>  <SCORE.SYSTEM.SOLV>
0.188266

>  <SCORE.SYSTEM.VDW>
-5.4904

>  <SCORE.SYSTEM.norm>
-1.90982

>  <SCORE.heavy>
11

>  <SCORE.norm>
-4.70003

$$$$
P156243627
 OpenBabel12072022113D
libRbt.so/2013.1/901 2013/11/27
 14 13  0  0  0  0  0  0  0  0999 V2000
  -25.0525   16.2376  -16.3006 C   0  0  0  0  0  0  0  0  0  0  0  0
  -26.2534   16.8554  -15.6307 C   0  0  0  0  0  0  0  0  0  0  0  0
  -26.1358   17.4913  -14.5883 O   0  0  0  0  0  0  0  0  0  0  0  0
  -27.4238   16.6792  -16.3395 N   0  0  0  0  0  0  0  0  0  0  0  0
  -28.7215   17.0930  -16.0313 C   0  0  0  0  0  0  0  0  0  0  0  0
  -29.1791   17.5125  -14.8272 C   0  0  0  0  0  0  0  0  0  0  0  0
  -30.6123   17.9996  -14.6890 C   0  0  0  0  0  0  0  0  0  0  0  0
  -31.8012   18.4038  -14.5744 N   0  0  0  0  0  0  0  0  0  0  0  0
  -28.5122   17.5763  -13.6123 N   0  0  0  0  0  0  0  0  0  0  0  0
  -29.6284   17.0156  -17.1446 C   0  0  0  0  0  0  0  0  0  0  0  0
  -30.3014   16.9252  -18.0847 N   0  0  0  0  0  0  0  0  0  0  0  0
  -27.3103   16.2963  -17.2751 H   0  0  0  0  0  0  0  0  0  0  0  0
  -28.4639   18.5333  -13.2374 H   0  0  0  0  0  0  0  0  0  0  0  0
  -28.8687   16.9356  -12.9052 H   0  0  0  0  0  0  0  0  0  0  0  0
  1  2  1  0  0  0  0
  2  3  2  0  0  0  0
  2  4  1  0  0  0  0
  4  5  1  0  0  0  0
  4 12  1  0  0  0  0
  5  6  2  0  0  0  0
  5 10  1  0  0  0  0
  6  7  1  0  0  0  0
  6  9  1  0  0  0  0
  7  8  3  0  0  0  0
  9 13  1  0  0  0  0
  9 14  1  0  0  0  0
 10 11  3  0  0  0  0
M  END
>  <CHROM.0>
-60.11384467,-59.47966212,-72.11768159,-42.53034961,-58.51943662,-60.43778812
-171.50100831,-59.38068119,-169.56610326

>  <CHROM.1>
119.57432803,-28.42540964,17.24704625,-15.58513700,0.11720389,0.19187209
-1.87106553

>  <Name>
P156243627

>  <RI>
0

>  <Rbt.Current_Directory>
/home/fstefaniak/projects/zuza/docking/adenine/4TZX

>  <Rbt.Executable>
rbdock ($Id: //depot/dev/client3/rdock/2013.1/src/exe/rbdock.cxx#4 $)

>  <Rbt.Library>
libRbt.so (2013.1, Build901 2013/11/27)

>  <Rbt.Parameter_File>
/home/fstefaniak/progs/rDock//data/scripts/dock_solv.prm

>  <Rbt.Receptor>
4tzx.prm

>  <SCORE>
-43.2122

>  <SCORE.INTER>
-24.359

>  <SCORE.INTER.CONST>
1

>  <SCORE.INTER.POLAR>
-4.20765

>  <SCORE.INTER.ROT>
1

>  <SCORE.INTER.SOLV>
14.9888

>  <SCORE.INTER.VDW>
-11.4768

>  <SCORE.INTER.norm>
-2.21446

>  <SCORE.INTRA>
1.65629

>  <SCORE.INTRA.DIHEDRAL>
-0.000267251

>  <SCORE.INTRA.DIHEDRAL.0>
0.48032

>  <SCORE.INTRA.POLAR>
0.642366

>  <SCORE.INTRA.POLAR.0>
-0.642366

>  <SCORE.INTRA.REPUL>
0

>  <SCORE.INTRA.REPUL.0>
0

>  <SCORE.INTRA.SOLV>
-0.339748

>  <SCORE.INTRA.SOLV.lig_0>
-21.2795

>  <SCORE.INTRA.VDW>
-0.357751

>  <SCORE.INTRA.VDW.0>
0.0596453

>  <SCORE.INTRA.norm>
0.150571

>  <SCORE.RESTR>
0

>  <SCORE.RESTR.CAVITY>
0

>  <SCORE.RESTR.norm>
0

>  <SCORE.SYSTEM>
-20.5095

>  <SCORE.SYSTEM.CONST>
0

>  <SCORE.SYSTEM.DIHEDRAL>
4.95709

>  <SCORE.SYSTEM.POLAR>
-3.02498

>  <SCORE.SYSTEM.SOLV>
0.162142

>  <SCORE.SYSTEM.VDW>
-5.29613

>  <SCORE.SYSTEM.norm>
-1.8645

>  <SCORE.heavy>
11

>  <SCORE.norm>
-3.92838

$$$$
P156243627
 OpenBabel12072022113D
libRbt.so/2013.1/901 2013/11/27
 14 13  0  0  0  0  0  0  0  0999 V2000
  -25.3381   16.0286  -16.4106 C   0  0  0  0  0  0  0  0  0  0  0  0
  -26.5805   16.6337  -15.8082 C   0  0  0  0  0  0  0  0  0  0  0  0
  -26.5604   17.1270  -14.6853 O   0  0  0  0  0  0  0  0  0  0  0  0
  -27.6627   16.6213  -16.6638 N   0  0  0  0  0  0  0  0  0  0  0  0
  -28.9668   17.0753  -16.4553 C   0  0  0  0  0  0  0  0  0  0  0  0
  -29.5472   17.3707  -15.2674 C   0  0  0  0  0  0  0  0  0  0  0  0
  -30.9613   17.9270  -15.2324 C   0  0  0  0  0  0  0  0  0  0  0  0
  -32.1344   18.3886  -15.2034 N   0  0  0  0  0  0  0  0  0  0  0  0
  -29.0312   17.2412  -13.9861 N   0  0  0  0  0  0  0  0  0  0  0  0
  -29.7338   17.1940  -17.6660 C   0  0  0  0  0  0  0  0  0  0  0  0
  -30.2906   17.2635  -18.6809 N   0  0  0  0  0  0  0  0  0  0  0  0
  -27.4545   16.3507  -17.6220 H   0  0  0  0  0  0  0  0  0  0  0  0
  -28.1750   17.7946  -13.8467 H   0  0  0  0  0  0  0  0  0  0  0  0
  -29.7021   17.4322  -13.2437 H   0  0  0  0  0  0  0  0  0  0  0  0
  1  2  1  0  0  0  0
  2  3  2  0  0  0  0
  2  4  1  0  0  0  0
  4  5  1  0  0  0  0
  4 12  1  0  0  0  0
  5  6  2  0  0  0  0
  5 10  1  0  0  0  0
  6  7  1  0  0  0  0
  6  9  1  0  0  0  0
  7  8  3  0  0  0  0
  9 13  1  0  0  0  0
  9 14  1  0  0  0  0
 10 11  3  0  0  0  0
M  END
>  <CHROM.0>
-60.49295944,-63.13949391,-70.87277354,-42.59370929,-174.78614096,-60.97311121
-168.53206998,-173.71049278,-169.26407076

>  <CHROM.1>
59.60897142,-28.71626617,17.15750202,-15.96311400,0.01024286,0.27280682,-1.72402707

>  <Name>
P156243627

>  <RI>
0

>  <Rbt.Current_Directory>
/home/fstefaniak/projects/zuza/docking/adenine/4TZX

>  <Rbt.Executable>
rbdock ($Id: //depot/dev/client3/rdock/2013.1/src/exe/rbdock.cxx#4 $)

>  <Rbt.Library>
libRbt.so (2013.1, Build901 2013/11/27)

>  <Rbt.Parameter_File>
/home/fstefaniak/progs/rDock//data/scripts/dock_solv.prm

>  <Rbt.Receptor>
4tzx.prm

>  <SCORE>
-40.3306

>  <SCORE.INTER>
-20.4767

>  <SCORE.INTER.CONST>
1

>  <SCORE.INTER.POLAR>
-3.17258

>  <SCORE.INTER.ROT>
1

>  <SCORE.INTER.SOLV>
15.1298

>  <SCORE.INTER.VDW>
-12.3858

>  <SCORE.INTER.norm>
-1.86152

>  <SCORE.INTRA>
0.806491

>  <SCORE.INTRA.DIHEDRAL>
-0.000373414

>  <SCORE.INTRA.DIHEDRAL.0>
0.48032

>  <SCORE.INTRA.POLAR>
0.308262

>  <SCORE.INTRA.POLAR.0>
-0.642366

>  <SCORE.INTRA.REPUL>
0

>  <SCORE.INTRA.REPUL.0>
0

>  <SCORE.INTRA.SOLV>
-0.117817

>  <SCORE.INTRA.SOLV.lig_0>
-21.2795

>  <SCORE.INTRA.VDW>
-0.182505

>  <SCORE.INTRA.VDW.0>
0.0596453

>  <SCORE.INTRA.norm>
0.0733173

>  <SCORE.RESTR>
0

>  <SCORE.RESTR.CAVITY>
0

>  <SCORE.RESTR.norm>
0

>  <SCORE.SYSTEM>
-20.6604

>  <SCORE.SYSTEM.CONST>
0

>  <SCORE.SYSTEM.DIHEDRAL>
5.44954

>  <SCORE.SYSTEM.POLAR>
-3.03308

>  <SCORE.SYSTEM.SOLV>
-0.158292

>  <SCORE.SYSTEM.VDW>
-5.42704

>  <SCORE.SYSTEM.norm>
-1.87821

>  <SCORE.heavy>
11

>  <SCORE.norm>
-3.66642

$$$$
P156243627
 OpenBabel12072022113D
libRbt.so/2013.1/901 2013/11/27
 14 13  0  0  0  0  0  0  0  0999 V2000
  -25.3463   16.0327  -16.4646 C   0  0  0  0  0  0  0  0  0  0  0  0
  -26.5654   16.6376  -15.8163 C   0  0  0  0  0  0  0  0  0  0  0  0
  -26.5051   17.1249  -14.6921 O   0  0  0  0  0  0  0  0  0  0  0  0
  -27.6767   16.6325  -16.6338 N   0  0  0  0  0  0  0  0  0  0  0  0
  -28.9716   17.0885  -16.3779 C   0  0  0  0  0  0  0  0  0  0  0  0
  -29.5096   17.3791  -15.1690 C   0  0  0  0  0  0  0  0  0  0  0  0
  -30.9202   17.9386  -15.0821 C   0  0  0  0  0  0  0  0  0  0  0  0
  -32.0904   18.4029  -15.0100 N   0  0  0  0  0  0  0  0  0  0  0  0
  -28.9499   17.2414  -13.9071 N   0  0  0  0  0  0  0  0  0  0  0  0
  -29.7797   17.2157  -17.5606 C   0  0  0  0  0  0  0  0  0  0  0  0
  -30.3712   17.2919  -18.5552 N   0  0  0  0  0  0  0  0  0  0  0  0
  -27.5026   16.3664  -17.6001 H   0  0  0  0  0  0  0  0  0  0  0  0
  -28.1323   17.8506  -13.7684 H   0  0  0  0  0  0  0  0  0  0  0  0
  -29.6117   17.3557  -13.1412 H   0  0  0  0  0  0  0  0  0  0  0  0
  1  2  1  0  0  0  0
  2  3  2  0  0  0  0
  2  4  1  0  0  0  0
  4  5  1  0  0  0  0
  4 12  1  0  0  0  0
  5  6  2  0  0  0  0
  5 10  1  0  0  0  0
  6  7  1  0  0  0  0
  6  9  1  0  0  0  0
  7  8  3  0  0  0  0
  9 13  1  0  0  0  0
  9 14  1  0  0  0  0
 10 11  3  0  0  0  0
M  END
>  <CHROM.0>
-57.60704709,-60.46691008,-52.14561495,-43.47034654,-58.99655837,-174.16069929
-65.32553697,-59.58867602,-168.34569350

>  <CHROM.1>
64.32189278,-28.70431584,17.16739536,-15.89408506,0.04637738,0.26988519,-1.72798854

>  <Name>
P156243627

>  <RI>
0

>  <Rbt.Current_Directory>
/home/fstefaniak/projects/zuza/docking/adenine/4TZX

>  <Rbt.Executable>
rbdock ($Id: //depot/dev/client3/rdock/2013.1/src/exe/rbdock.cxx#4 $)

>  <Rbt.Library>
libRbt.so (2013.1, Build901 2013/11/27)

>  <Rbt.Parameter_File>
/home/fstefaniak/progs/rDock//data/scripts/dock_solv.prm

>  <Rbt.Receptor>
4tzx.prm

>  <SCORE>
-40.1722

>  <SCORE.INTER>
-20.683

>  <SCORE.INTER.CONST>
1

>  <SCORE.INTER.POLAR>
-3.09863

>  <SCORE.INTER.ROT>
1

>  <SCORE.INTER.SOLV>
15.1248

>  <SCORE.INTER.VDW>
-12.7682

>  <SCORE.INTER.norm>
-1.88028

>  <SCORE.INTRA>
1.12597

>  <SCORE.INTRA.DIHEDRAL>
-0.000451792

>  <SCORE.INTRA.DIHEDRAL.0>
0.48032

>  <SCORE.INTRA.POLAR>
0.410372

>  <SCORE.INTRA.POLAR.0>
-0.642366

>  <SCORE.INTRA.REPUL>
0

>  <SCORE.INTRA.REPUL.0>
0

>  <SCORE.INTRA.SOLV>
-0.138965

>  <SCORE.INTRA.SOLV.lig_0>
-21.2795

>  <SCORE.INTRA.VDW>
-0.199581

>  <SCORE.INTRA.VDW.0>
0.0596453

>  <SCORE.INTRA.norm>
0.102361

>  <SCORE.RESTR>
0

>  <SCORE.RESTR.CAVITY>
0

>  <SCORE.RESTR.norm>
0

>  <SCORE.SYSTEM>
-20.6151

>  <SCORE.SYSTEM.CONST>
0

>  <SCORE.SYSTEM.DIHEDRAL>
4.54506

>  <SCORE.SYSTEM.POLAR>
-3.11448

>  <SCORE.SYSTEM.SOLV>
0.0949572

>  <SCORE.SYSTEM.VDW>
-4.90845

>  <SCORE.SYSTEM.norm>
-1.8741

>  <SCORE.heavy>
11

>  <SCORE.norm>
-3.65201

$$$$
P156251492
 OpenBabel12072022113D
libRbt.so/2013.1/901 2013/11/27
 14 13  0  0  0  0  0  0  0  0999 V2000
  -27.0151   18.8155  -13.2021 C   0  0  0  0  0  0  0  0  0  0  0  0
  -27.6793   18.2489  -14.2195 N   0  3  0  0  0  0  0  0  0  0  0  0
  -27.3055   18.2049  -15.1559 H   0  0  0  0  0  0  0  0  0  0  0  0
  -28.5321   17.7451  -14.0067 H   0  0  0  0  0  0  0  0  0  0  0  0
  -25.8052   19.3512  -13.4188 N   0  0  0  0  0  0  0  0  0  0  0  0
  -27.5859   18.8482  -11.9113 N   0  0  0  0  0  0  0  0  0  0  0  0
  -26.8016   19.2047  -10.8339 N   0  0  0  0  0  0  0  0  0  0  0  0
  -28.9171   18.5222  -11.7521 N   0  0  0  0  0  0  0  0  0  0  0  0
  -25.3641   19.3488  -14.3266 H   0  0  0  0  0  0  0  0  0  0  0  0
  -25.3794   19.8797  -12.6667 H   0  0  0  0  0  0  0  0  0  0  0  0
  -26.8662   20.2166  -10.6868 H   0  0  0  0  0  0  0  0  0  0  0  0
  -25.8227   19.0069  -11.0532 H   0  0  0  0  0  0  0  0  0  0  0  0
  -29.0404   17.5160  -11.9014 H   0  0  0  0  0  0  0  0  0  0  0  0
  -29.4646   18.9906  -12.4775 H   0  0  0  0  0  0  0  0  0  0  0  0
  1  2  2  0  0  0  0
  1  5  1  0  0  0  0
  1  6  1  0  0  0  0
  2  3  1  0  0  0  0
  2  4  1  0  0  0  0
  5  9  1  0  0  0  0
  5 10  1  0  0  0  0
  6  7  1  0  0  0  0
  6  8  1  0  0  0  0
  7 11  1  0  0  0  0
  7 12  1  0  0  0  0
  8 13  1  0  0  0  0
  8 14  1  0  0  0  0
M  CHG  1   2   1
M  END
>  <CHROM.0>
-57.38320357,55.85459057,-65.53828392,-43.38126798,-57.39701928,-171.46236646
-68.60787423,-59.71413315,-170.40456489

>  <CHROM.1>
91.19666714,70.86343776,-27.29998423,18.83496981,-12.56238220,-1.12416371
0.35705699,1.37399243

>  <Name>
P156251492

>  <RI>
0

>  <Rbt.Current_Directory>
/home/fstefaniak/projects/zuza/docking/adenine/4TZX

>  <Rbt.Executable>
rbdock ($Id: //depot/dev/client3/rdock/2013.1/src/exe/rbdock.cxx#4 $)

>  <Rbt.Library>
libRbt.so (2013.1, Build901 2013/11/27)

>  <Rbt.Parameter_File>
/home/fstefaniak/progs/rDock//data/scripts/dock_solv.prm

>  <Rbt.Receptor>
4tzx.prm

>  <SCORE>
-55.1468

>  <SCORE.INTER>
-36.1215

>  <SCORE.INTER.CONST>
1

>  <SCORE.INTER.POLAR>
-7.44236

>  <SCORE.INTER.ROT>
2

>  <SCORE.INTER.SOLV>
20.1487

>  <SCORE.INTER.VDW>
-10.9227

>  <SCORE.INTER.norm>
-6.02024

>  <SCORE.INTRA>
0.949722

>  <SCORE.INTRA.DIHEDRAL>
0.000255538

>  <SCORE.INTRA.DIHEDRAL.0>
1.6

>  <SCORE.INTRA.POLAR>
0

>  <SCORE.INTRA.POLAR.0>
0

>  <SCORE.INTRA.REPUL>
0

>  <SCORE.INTRA.REPUL.0>
0

>  <SCORE.INTRA.SOLV>
0.722472

>  <SCORE.INTRA.SOLV.lig_0>
-34.2898

>  <SCORE.INTRA.VDW>
0.588359

>  <SCORE.INTRA.VDW.0>
-0.316297

>  <SCORE.INTRA.norm>
0.158287

>  <SCORE.RESTR>
0

>  <SCORE.RESTR.CAVITY>
0

>  <SCORE.RESTR.norm>
0

>  <SCORE.SYSTEM>
-19.9751

>  <SCORE.SYSTEM.CONST>
0

>  <SCORE.SYSTEM.DIHEDRAL>
4.72011

>  <SCORE.SYSTEM.POLAR>
-3.03653

>  <SCORE.SYSTEM.SOLV>
0.151478

>  <SCORE.SYSTEM.VDW>
-4.81882

>  <SCORE.SYSTEM.norm>
-3.32918

>  <SCORE.heavy>
6

>  <SCORE.norm>
-9.19114

$$$$
P156251492
 OpenBabel12072022113D
libRbt.so/2013.1/901 2013/11/27
 14 13  0  0  0  0  0  0  0  0999 V2000
  -27.3931   18.8672  -12.4799 C   0  0  0  0  0  0  0  0  0  0  0  0
  -27.0338   19.4930  -11.3501 N   0  3  0  0  0  0  0  0  0  0  0  0
  -27.6062   19.4862  -10.5189 H   0  0  0  0  0  0  0  0  0  0  0  0
  -26.1001   19.8829  -11.3006 H   0  0  0  0  0  0  0  0  0  0  0  0
  -28.5561   18.2017  -12.5264 N   0  0  0  0  0  0  0  0  0  0  0  0
  -26.5524   18.9088  -13.6134 N   0  0  0  0  0  0  0  0  0  0  0  0
  -26.8076   18.0666  -14.6758 N   0  0  0  0  0  0  0  0  0  0  0  0
  -25.4914   19.7905  -13.6364 N   0  0  0  0  0  0  0  0  0  0  0  0
  -29.1846   18.1495  -11.7383 H   0  0  0  0  0  0  0  0  0  0  0  0
  -28.8615   17.8432  -13.4233 H   0  0  0  0  0  0  0  0  0  0  0  0
  -25.9582   17.5411  -14.9043 H   0  0  0  0  0  0  0  0  0  0  0  0
  -27.0305   18.6276  -15.5010 H   0  0  0  0  0  0  0  0  0  0  0  0
  -25.0107   19.7669  -12.7319 H   0  0  0  0  0  0  0  0  0  0  0  0
  -25.8500   20.7415  -13.7478 H   0  0  0  0  0  0  0  0  0  0  0  0
  1  2  2  0  0  0  0
  1  5  1  0  0  0  0
  1  6  1  0  0  0  0
  2  3  1  0  0  0  0
  2  4  1  0  0  0  0
  5  9  1  0  0  0  0
  5 10  1  0  0  0  0
  6  7  1  0  0  0  0
  6  8  1  0  0  0  0
  7 11  1  0  0  0  0
  7 12  1  0  0  0  0
  8 13  1  0  0  0  0
  8 14  1  0  0  0  0
M  CHG  1   2   1
M  END
>  <CHROM.0>
-59.53874293,-61.94846932,-70.74263648,-43.01739990,-61.27153418,58.20465676
-169.91881326,-179.09886483,-168.62898965

>  <CHROM.1>
-127.01271736,43.91119062,-26.96108606,18.89887520,-13.05384179,2.31806334
0.55463076,1.13604392

>  <Name>
P156251492

>  <RI>
0

>  <Rbt.Current_Directory>
/home/fstefaniak/projects/zuza/docking/adenine/4TZX

>  <Rbt.Executable>
rbdock ($Id: //depot/dev/client3/rdock/2013.1/src/exe/rbdock.cxx#4 $)

>  <Rbt.Library>
libRbt.so (2013.1, Build901 2013/11/27)

>  <Rbt.Parameter_File>
/home/fstefaniak/progs/rDock//data/scripts/dock_solv.prm

>  <Rbt.Receptor>
4tzx.prm

>  <SCORE>
-54.4585

>  <SCORE.INTER>
-35.8896

>  <SCORE.INTER.CONST>
1

>  <SCORE.INTER.POLAR>
-7.06239

>  <SCORE.INTER.ROT>
2

>  <SCORE.INTER.SOLV>
20.8554

>  <SCORE.INTER.VDW>
-12.2702

>  <SCORE.INTER.norm>
-5.9816

>  <SCORE.INTRA>
0.877628

>  <SCORE.INTRA.DIHEDRAL>
0.000661834

>  <SCORE.INTRA.DIHEDRAL.0>
1.6

>  <SCORE.INTRA.POLAR>
0

>  <SCORE.INTRA.POLAR.0>
0

>  <SCORE.INTRA.REPUL>
0

>  <SCORE.INTRA.REPUL.0>
0

>  <SCORE.INTRA.SOLV>
0.182362

>  <SCORE.INTRA.SOLV.lig_0>
-34.2898

>  <SCORE.INTRA.VDW>
0.786116

>  <SCORE.INTRA.VDW.0>
-0.316297

>  <SCORE.INTRA.norm>
0.146271

>  <SCORE.RESTR>
0

>  <SCORE.RESTR.CAVITY>
0

>  <SCORE.RESTR.norm>
0

>  <SCORE.SYSTEM>
-19.4465

>  <SCORE.SYSTEM.CONST>
0

>  <SCORE.SYSTEM.DIHEDRAL>
4.99919

>  <SCORE.SYSTEM.POLAR>
-3.03866

>  <SCORE.SYSTEM.SOLV>
-0.109811

>  <SCORE.SYSTEM.VDW>
-4.46528

>  <SCORE.SYSTEM.norm>
-3.24109

>  <SCORE.heavy>
6

>  <SCORE.norm>
-9.07641

$$$$
P156251492
 OpenBabel12072022113D
libRbt.so/2013.1/901 2013/11/27
 14 13  0  0  0  0  0  0  0  0999 V2000
  -27.4178   18.8315  -12.4829 C   0  0  0  0  0  0  0  0  0  0  0  0
  -27.0655   19.4429  -11.3430 N   0  3  0  0  0  0  0  0  0  0  0  0
  -27.6424   19.4246  -10.5151 H   0  0  0  0  0  0  0  0  0  0  0  0
  -26.1326   19.8333  -11.2833 H   0  0  0  0  0  0  0  0  0  0  0  0
  -28.5797   18.1652  -12.5444 N   0  0  0  0  0  0  0  0  0  0  0  0
  -26.5710   18.8890  -13.6111 N   0  0  0  0  0  0  0  0  0  0  0  0
  -26.8193   18.0604  -14.6857 N   0  0  0  0  0  0  0  0  0  0  0  0
  -25.5111   19.7722  -13.6167 N   0  0  0  0  0  0  0  0  0  0  0  0
  -29.2125   18.1020  -11.7606 H   0  0  0  0  0  0  0  0  0  0  0  0
  -28.8797   17.8182  -13.4476 H   0  0  0  0  0  0  0  0  0  0  0  0
  -25.9735   17.5250  -14.9043 H   0  0  0  0  0  0  0  0  0  0  0  0
  -27.0196   18.6323  -15.5093 H   0  0  0  0  0  0  0  0  0  0  0  0
  -25.0243   19.7241  -12.7164 H   0  0  0  0  0  0  0  0  0  0  0  0
  -25.8713   20.7256  -13.6993 H   0  0  0  0  0  0  0  0  0  0  0  0
  1  2  2  0  0  0  0
  1  5  1  0  0  0  0
  1  6  1  0  0  0  0
  2  3  1  0  0  0  0
  2  4  1  0  0  0  0
  5  9  1  0  0  0  0
  5 10  1  0  0  0  0
  6  7  1  0  0  0  0
  6  8  1  0  0  0  0
  7 11  1  0  0  0  0
  7 12  1  0  0  0  0
  8 13  1  0  0  0  0
  8 14  1  0  0  0  0
M  CHG  1   2   1
M  END
>  <CHROM.0>
-59.90060288,-60.06717975,-62.40735805,-43.46137921,-57.17322604,-33.64494128
-66.76210704,-172.88520586,-168.80085425

>  <CHROM.1>
-125.86411427,45.00315719,-26.98247685,18.87095180,-13.05373238,2.32489477
0.55333290,1.14523145

>  <Name>
P156251492

>  <RI>
0

>  <Rbt.Current_Directory>
/home/fstefaniak/projects/zuza/docking/adenine/4TZX

>  <Rbt.Executable>
rbdock ($Id: //depot/dev/client3/rdock/2013.1/src/exe/rbdock.cxx#4 $)

>  <Rbt.Library>
libRbt.so (2013.1, Build901 2013/11/27)

>  <Rbt.Parameter_File>
/home/fstefaniak/progs/rDock//data/scripts/dock_solv.prm

>  <Rbt.Receptor>
4tzx.prm

>  <SCORE>
-54.2631

>  <SCORE.INTER>
-35.2042

>  <SCORE.INTER.CONST>
1

>  <SCORE.INTER.POLAR>
-6.98648

>  <SCORE.INTER.ROT>
2

>  <SCORE.INTER.SOLV>
20.8057

>  <SCORE.INTER.VDW>
-12.0498

>  <SCORE.INTER.norm>
-5.86736

>  <SCORE.INTRA>
0.787802

>  <SCORE.INTRA.DIHEDRAL>
0.000589152

>  <SCORE.INTRA.DIHEDRAL.0>
1.6

>  <SCORE.INTRA.POLAR>
0

>  <SCORE.INTRA.POLAR.0>
0

>  <SCORE.INTRA.REPUL>
0

>  <SCORE.INTRA.REPUL.0>
0

>  <SCORE.INTRA.SOLV>
0.179134

>  <SCORE.INTRA.SOLV.lig_0>
-34.2898

>  <SCORE.INTRA.VDW>
0.69794

>  <SCORE.INTRA.VDW.0>
-0.316297

>  <SCORE.INTRA.norm>
0.1313

>  <SCORE.RESTR>
0

>  <SCORE.RESTR.CAVITY>
0

>  <SCORE.RESTR.norm>
0

>  <SCORE.SYSTEM>
-19.8467

>  <SCORE.SYSTEM.CONST>
0

>  <SCORE.SYSTEM.DIHEDRAL>
7.10309

>  <SCORE.SYSTEM.POLAR>
-3.22753

>  <SCORE.SYSTEM.SOLV>
0.0829499

>  <SCORE.SYSTEM.VDW>
-4.86808

>  <SCORE.SYSTEM.norm>
-3.30779

>  <SCORE.heavy>
6

>  <SCORE.norm>
-9.04385

$$$$
P156450664
 OpenBabel12072022113D
libRbt.so/2013.1/901 2013/11/27
 17 17  0  0  0  0  0  0  0  0999 V2000
  -26.0599   14.0444  -16.6235 C   0  0  0  0  0  0  0  0  0  0  0  0
  -25.9567   15.4341  -16.5761 C   0  0  0  0  0  0  0  0  0  0  0  0
  -27.1048   16.2147  -16.4258 C   0  0  0  0  0  0  0  0  0  0  0  0
  -28.3645   15.6074  -16.3233 C   0  0  0  0  0  0  0  0  0  0  0  0
  -28.4596   14.2098  -16.3712 C   0  0  0  0  0  0  0  0  0  0  0  0
  -27.3086   13.4322  -16.5212 C   0  0  0  0  0  0  0  0  0  0  0  0
  -29.5767   16.4662  -16.1568 C   0  0  0  0  0  0  0  0  0  0  0  0
  -30.1423   16.5051  -15.0660 O   0  0  0  0  0  0  0  0  0  0  0  0
  -29.9622   17.1809  -17.2677 N   0  0  0  0  0  0  0  0  0  0  0  0
  -30.9616   18.0006  -17.1742 C   0  0  0  0  0  0  0  0  0  0  0  0
  -31.7356   18.2609  -16.0843 N   0  0  0  0  0  0  0  0  0  0  0  0
  -31.3772   18.7537  -18.2482 N   0  0  0  0  0  0  0  0  0  0  0  0
  -32.7247   18.5444  -18.5811 O   0  0  0  0  0  0  0  0  0  0  0  0
  -32.5680   17.6637  -16.0703 H   0  0  0  0  0  0  0  0  0  0  0  0
  -31.2355   18.1611  -15.2085 H   0  0  0  0  0  0  0  0  0  0  0  0
  -31.1498   19.7413  -18.1581 H   0  0  0  0  0  0  0  0  0  0  0  0
  -32.9326   19.3275  -19.1345 H   0  0  0  0  0  0  0  0  0  0  0  0
  1  2  2  0  0  0  0
  1  6  1  0  0  0  0
  2  3  1  0  0  0  0
  3  4  2  0  0  0  0
  4  5  1  0  0  0  0
  4  7  1  0  0  0  0
  5  6  2  0  0  0  0
  7  8  2  0  0  0  0
  7  9  1  0  0  0  0
  9 10  2  0  0  0  0
 10 11  1  0  0  0  0
 10 12  1  0  0  0  0
 11 14  1  0  0  0  0
 11 15  1  0  0  0  0
 12 13  1  0  0  0  0
 12 16  1  0  0  0  0
 13 17  1  0  0  0  0
M  END
>  <CHROM.0>
-58.05575262,-179.65241580,-68.63086555,-41.66190286,-63.00291068,-59.18867033
-65.58208576,-60.30041739,-168.92967264

>  <CHROM.1>
-107.22955247,-176.32969877,-92.81593576,122.68389198,162.40316787,-29.36930112
16.47269221,-16.74805130,-0.46154045,0.52130245,-1.07546127

>  <Name>
P156450664

>  <RI>
0

>  <Rbt.Current_Directory>
/home/fstefaniak/projects/zuza/docking/adenine/4TZX

>  <Rbt.Executable>
rbdock ($Id: //depot/dev/client3/rdock/2013.1/src/exe/rbdock.cxx#4 $)

>  <Rbt.Library>
libRbt.so (2013.1, Build901 2013/11/27)

>  <Rbt.Parameter_File>
/home/fstefaniak/progs/rDock//data/scripts/dock_solv.prm

>  <Rbt.Receptor>
4tzx.prm

>  <SCORE>
-62.9013

>  <SCORE.INTER>
-44.5741

>  <SCORE.INTER.CONST>
1

>  <SCORE.INTER.POLAR>
-5.95631

>  <SCORE.INTER.ROT>
4

>  <SCORE.INTER.SOLV>
14.6586

>  <SCORE.INTER.VDW>
-21.0146

>  <SCORE.INTER.norm>
-3.42878

>  <SCORE.INTRA>
2.57327

>  <SCORE.INTRA.DIHEDRAL>
5.68694

>  <SCORE.INTRA.DIHEDRAL.0>
7.26783

>  <SCORE.INTRA.POLAR>
0.296375

>  <SCORE.INTRA.POLAR.0>
-0.296375

>  <SCORE.INTRA.REPUL>
0

>  <SCORE.INTRA.REPUL.0>
0

>  <SCORE.INTRA.SOLV>
0.189846

>  <SCORE.INTRA.SOLV.lig_0>
-22.1253

>  <SCORE.INTRA.VDW>
-1.3728

>  <SCORE.INTRA.VDW.0>
0.900418

>  <SCORE.INTRA.norm>
0.197944

>  <SCORE.RESTR>
0

>  <SCORE.RESTR.CAVITY>
0

>  <SCORE.RESTR.norm>
0

>  <SCORE.SYSTEM>
-20.9005

>  <SCORE.SYSTEM.CONST>
0

>  <SCORE.SYSTEM.DIHEDRAL>
4.69538

>  <SCORE.SYSTEM.POLAR>
-3.07465

>  <SCORE.SYSTEM.SOLV>
0.163897

>  <SCORE.SYSTEM.VDW>
-5.30454

>  <SCORE.SYSTEM.norm>
-1.60773

>  <SCORE.heavy>
13

>  <SCORE.norm>
-4.83856

$$$$
P156450664
 OpenBabel12072022113D
libRbt.so/2013.1/901 2013/11/27
 17 17  0  0  0  0  0  0  0  0999 V2000
  -26.3005   14.0819  -16.7930 C   0  0  0  0  0  0  0  0  0  0  0  0
  -27.5708   13.5085  -16.7539 C   0  0  0  0  0  0  0  0  0  0  0  0
  -28.6873   14.3025  -16.4837 C   0  0  0  0  0  0  0  0  0  0  0  0
  -28.5377   15.6769  -16.2497 C   0  0  0  0  0  0  0  0  0  0  0  0
  -27.2574   16.2458  -16.2914 C   0  0  0  0  0  0  0  0  0  0  0  0
  -26.1429   15.4482  -16.5624 C   0  0  0  0  0  0  0  0  0  0  0  0
  -29.7502   16.5051  -15.9690 C   0  0  0  0  0  0  0  0  0  0  0  0
  -30.3180   16.3938  -14.8845 O   0  0  0  0  0  0  0  0  0  0  0  0
  -30.1332   17.3662  -16.9718 N   0  0  0  0  0  0  0  0  0  0  0  0
  -31.1557   18.1395  -16.7821 C   0  0  0  0  0  0  0  0  0  0  0  0
  -31.9570   18.2184  -15.6837 N   0  0  0  0  0  0  0  0  0  0  0  0
  -31.5704   19.0325  -17.7433 N   0  0  0  0  0  0  0  0  0  0  0  0
  -32.6953   18.5915  -18.4580 O   0  0  0  0  0  0  0  0  0  0  0  0
  -32.7943   17.6383  -15.7940 H   0  0  0  0  0  0  0  0  0  0  0  0
  -31.4820   17.9633  -14.8257 H   0  0  0  0  0  0  0  0  0  0  0  0
  -31.6837   19.9795  -17.3894 H   0  0  0  0  0  0  0  0  0  0  0  0
  -32.7870   19.2752  -19.1559 H   0  0  0  0  0  0  0  0  0  0  0  0
  1  2  2  0  0  0  0
  1  6  1  0  0  0  0
  2  3  1  0  0  0  0
  3  4  2  0  0  0  0
  4  5  1  0  0  0  0
  4  7  1  0  0  0  0
  5  6  2  0  0  0  0
  7  8  2  0  0  0  0
  7  9  1  0  0  0  0
  9 10  2  0  0  0  0
 10 11  1  0  0  0  0
 10 12  1  0  0  0  0
 11 14  1  0  0  0  0
 11 15  1  0  0  0  0
 12 13  1  0  0  0  0
 12 16  1  0  0  0  0
 13 17  1  0  0  0  0
M  END
>  <CHROM.0>
-61.57583897,-58.05744099,-44.04477081,-42.02747475,-63.22695084,-178.02380316
-67.03486719,-65.34415989,-169.05273190

>  <CHROM.1>
72.41347548,-178.22686373,-95.34348346,102.12510861,-173.42712564,-29.54694507
16.53457709,-16.60185351,-0.37259832,0.58762418,-1.13722722

>  <Name>
P156450664

>  <RI>
0

>  <Rbt.Current_Directory>
/home/fstefaniak/projects/zuza/docking/adenine/4TZX

>  <Rbt.Executable>
rbdock ($Id: //depot/dev/client3/rdock/2013.1/src/exe/rbdock.cxx#4 $)

>  <Rbt.Library>
libRbt.so (2013.1, Build901 2013/11/27)

>  <Rbt.Parameter_File>
/home/fstefaniak/progs/rDock//data/scripts/dock_solv.prm

>  <Rbt.Receptor>
4tzx.prm

>  <SCORE>
-62.5742

>  <SCORE.INTER>
-44.2971

>  <SCORE.INTER.CONST>
1

>  <SCORE.INTER.POLAR>
-5.91314

>  <SCORE.INTER.ROT>
4

>  <SCORE.INTER.SOLV>
15.7108

>  <SCORE.INTER.VDW>
-21.3246

>  <SCORE.INTER.norm>
-3.40747

>  <SCORE.INTRA>
2.15357

>  <SCORE.INTRA.DIHEDRAL>
5.27816

>  <SCORE.INTRA.DIHEDRAL.0>
7.26783

>  <SCORE.INTRA.POLAR>
0.296375

>  <SCORE.INTRA.POLAR.0>
-0.296375

>  <SCORE.INTRA.REPUL>
0

>  <SCORE.INTRA.REPUL.0>
0

>  <SCORE.INTRA.SOLV>
0.106796

>  <SCORE.INTRA.SOLV.lig_0>
-22.1253

>  <SCORE.INTRA.VDW>
-1.54659

>  <SCORE.INTRA.VDW.0>
0.900418

>  <SCORE.INTRA.norm>
0.165659

>  <SCORE.RESTR>
0

>  <SCORE.RESTR.CAVITY>
0

>  <SCORE.RESTR.norm>
0

>  <SCORE.SYSTEM>
-20.4306

>  <SCORE.SYSTEM.CONST>
0

>  <SCORE.SYSTEM.DIHEDRAL>
5.63464

>  <SCORE.SYSTEM.POLAR>
-3.19651

>  <SCORE.SYSTEM.SOLV>
0.0794226

>  <SCORE.SYSTEM.VDW>
-4.87009

>  <SCORE.SYSTEM.norm>
-1.57159

>  <SCORE.heavy>
13

>  <SCORE.norm>
-4.8134

$$$$
P156450664
 OpenBabel12072022113D
libRbt.so/2013.1/901 2013/11/27
 17 17  0  0  0  0  0  0  0  0999 V2000
  -26.1130   13.8406  -16.6768 C   0  0  0  0  0  0  0  0  0  0  0  0
  -27.4056   13.3208  -16.6216 C   0  0  0  0  0  0  0  0  0  0  0  0
  -28.4950   14.1760  -16.4426 C   0  0  0  0  0  0  0  0  0  0  0  0
  -28.2958   15.5582  -16.3166 C   0  0  0  0  0  0  0  0  0  0  0  0
  -26.9933   16.0729  -16.3738 C   0  0  0  0  0  0  0  0  0  0  0  0
  -25.9060   15.2141  -16.5534 C   0  0  0  0  0  0  0  0  0  0  0  0
  -29.4799   16.4519  -16.1322 C   0  0  0  0  0  0  0  0  0  0  0  0
  -30.0144   16.5234  -15.0276 O   0  0  0  0  0  0  0  0  0  0  0  0
  -29.8761   17.1590  -17.2443 N   0  0  0  0  0  0  0  0  0  0  0  0
  -30.8839   17.9683  -17.1504 C   0  0  0  0  0  0  0  0  0  0  0  0
  -31.6573   18.2239  -16.0590 N   0  0  0  0  0  0  0  0  0  0  0  0
  -31.3105   18.7137  -18.2255 N   0  0  0  0  0  0  0  0  0  0  0  0
  -32.6965   18.6380  -18.4347 O   0  0  0  0  0  0  0  0  0  0  0  0
  -32.4637   17.5929  -16.0208 H   0  0  0  0  0  0  0  0  0  0  0  0
  -31.1449   18.1677  -15.1864 H   0  0  0  0  0  0  0  0  0  0  0  0
  -30.9737   19.6735  -18.2076 H   0  0  0  0  0  0  0  0  0  0  0  0
  -32.8384   19.2798  -19.1633 H   0  0  0  0  0  0  0  0  0  0  0  0
  1  2  2  0  0  0  0
  1  6  1  0  0  0  0
  2  3  1  0  0  0  0
  3  4  2  0  0  0  0
  4  5  1  0  0  0  0
  4  7  1  0  0  0  0
  5  6  2  0  0  0  0
  7  8  2  0  0  0  0
  7  9  1  0  0  0  0
  9 10  2  0  0  0  0
 10 11  1  0  0  0  0
 10 12  1  0  0  0  0
 11 14  1  0  0  0  0
 11 15  1  0  0  0  0
 12 13  1  0  0  0  0
 12 16  1  0  0  0  0
 13 17  1  0  0  0  0
M  END
>  <CHROM.0>
-60.53150119,-178.39336709,-66.00120290,-44.19836127,-59.38169385,-176.23610231
-66.55893014,-66.79522742,-169.17635634

>  <CHROM.1>
77.64829684,-178.97973260,-90.56305056,131.34202319,174.72015844,-29.32006614
16.41587525,-16.73325855,-0.40693409,0.58728625,-1.16806541

>  <Name>
P156450664

>  <RI>
0

>  <Rbt.Current_Directory>
/home/fstefaniak/projects/zuza/docking/adenine/4TZX

>  <Rbt.Executable>
rbdock ($Id: //depot/dev/client3/rdock/2013.1/src/exe/rbdock.cxx#4 $)

>  <Rbt.Library>
libRbt.so (2013.1, Build901 2013/11/27)

>  <Rbt.Parameter_File>
/home/fstefaniak/progs/rDock//data/scripts/dock_solv.prm

>  <Rbt.Receptor>
4tzx.prm

>  <SCORE>
-62.506

>  <SCORE.INTER>
-44.4672

>  <SCORE.INTER.CONST>
1

>  <SCORE.INTER.POLAR>
-5.80967

>  <SCORE.INTER.ROT>
4

>  <SCORE.INTER.SOLV>
14.5656

>  <SCORE.INTER.VDW>
-21.4011

>  <SCORE.INTER.norm>
-3.42055

>  <SCORE.INTRA>
2.75963

>  <SCORE.INTRA.DIHEDRAL>
5.91737

>  <SCORE.INTRA.DIHEDRAL.0>
7.26783

>  <SCORE.INTRA.POLAR>
0.296375

>  <SCORE.INTRA.POLAR.0>
-0.296375

>  <SCORE.INTRA.REPUL>
0

>  <SCORE.INTRA.REPUL.0>
0

>  <SCORE.INTRA.SOLV>
0.215324

>  <SCORE.INTRA.SOLV.lig_0>
-22.1253

>  <SCORE.INTRA.VDW>
-1.31439

>  <SCORE.INTRA.VDW.0>
0.900418

>  <SCORE.INTRA.norm>
0.212279

>  <SCORE.RESTR>
0

>  <SCORE.RESTR.CAVITY>
0

>  <SCORE.RESTR.norm>
0

>  <SCORE.SYSTEM>
-20.7984

>  <SCORE.SYSTEM.CONST>
0

>  <SCORE.SYSTEM.DIHEDRAL>
4.41632

>  <SCORE.SYSTEM.POLAR>
-3.01496

>  <SCORE.SYSTEM.SOLV>
0.0262981

>  <SCORE.SYSTEM.VDW>
-5.2966

>  <SCORE.SYSTEM.norm>
-1.59988

>  <SCORE.heavy>
13

>  <SCORE.norm>
-4.80815

$$$$
P20462346
 OpenBabel12072022113D
libRbt.so/2013.1/901 2013/11/27
 11 11  0  0  0  0  0  0  0  0999 V2000
  -27.6632   12.8662  -17.8111 C   0  0  0  0  0  0  0  0  0  0  0  0
  -27.0951   13.2242  -16.4408 C   0  0  1  0  0  0  0  0  0  0  0  0
  -25.8235   14.0875  -16.5087 C   0  0  1  0  0  0  0  0  0  0  0  0
  -26.1354   15.5309  -16.8982 C   0  0  0  0  0  0  0  0  0  0  0  0
  -27.2631   16.0961  -16.0418 C   0  0  0  0  0  0  0  0  0  0  0  0
  -28.4698   15.1595  -16.0121 C   0  0  1  0  0  0  0  0  0  0  0  0
  -28.0797   13.8490  -15.6029 O   0  0  0  0  0  0  0  0  0  0  0  0
  -29.4026   15.7121  -15.0832 O   0  0  0  0  0  0  0  0  0  0  0  0
  -30.2067   16.7246  -15.6718 C   0  0  0  0  0  0  0  0  0  0  0  0
  -25.2009   14.0995  -15.2181 O   0  0  0  0  0  0  0  0  0  0  0  0
  -24.3570   14.5826  -15.3127 H   0  0  0  0  0  0  0  0  0  0  0  0
  2  1  1  6  0  0  0
  2  7  1  0  0  0  0
  2  3  1  0  0  0  0
  3  4  1  0  0  0  0
  3 10  1  1  0  0  0
  4  5  1  0  0  0  0
  5  6  1  0  0  0  0
  6  7  1  0  0  0  0
  6  8  1  1  0  0  0
  8  9  1  0  0  0  0
 10 11  1  0  0  0  0
M  END
>  <CHROM.0>
-56.06393769,-66.59711800,-72.06358166,-42.23336878,-56.48331304,-66.32222139
-169.89459847,-62.08002698,-168.85308248

>  <CHROM.1>
174.78356956,83.03225129,-27.54086964,14.73934431,-16.09421650,0.60340909
0.06849789,-2.69456546

>  <Name>
P20462346

>  <RI>
0

>  <Rbt.Current_Directory>
/home/fstefaniak/projects/zuza/docking/adenine/4TZX

>  <Rbt.Executable>
rbdock ($Id: //depot/dev/client3/rdock/2013.1/src/exe/rbdock.cxx#4 $)

>  <Rbt.Library>
libRbt.so (2013.1, Build901 2013/11/27)

>  <Rbt.Parameter_File>
/home/fstefaniak/progs/rDock//data/scripts/dock_solv.prm

>  <Rbt.Receptor>
4tzx.prm

>  <SCORE>
-42.0825

>  <SCORE.INTER>
-22.2624

>  <SCORE.INTER.CONST>
1

>  <SCORE.INTER.POLAR>
-2.4838

>  <SCORE.INTER.ROT>
1

>  <SCORE.INTER.SOLV>
7.76195

>  <SCORE.INTER.VDW>
-13.4162

>  <SCORE.INTER.norm>
-2.22624

>  <SCORE.INTRA>
0.694018

>  <SCORE.INTRA.DIHEDRAL>
0.655485

>  <SCORE.INTRA.DIHEDRAL.0>
1.80358

>  <SCORE.INTRA.POLAR>
0.00752285

>  <SCORE.INTRA.POLAR.0>
-0.00752285

>  <SCORE.INTRA.REPUL>
0

>  <SCORE.INTRA.REPUL.0>
0

>  <SCORE.INTRA.SOLV>
-0.0276111

>  <SCORE.INTRA.SOLV.lig_0>
-7.94252

>  <SCORE.INTRA.VDW>
0.354504

>  <SCORE.INTRA.VDW.0>
0.64276

>  <SCORE.INTRA.norm>
0.0694018

>  <SCORE.RESTR>
0

>  <SCORE.RESTR.CAVITY>
0

>  <SCORE.RESTR.norm>
0

>  <SCORE.SYSTEM>
-20.5141

>  <SCORE.SYSTEM.CONST>
0

>  <SCORE.SYSTEM.DIHEDRAL>
5.71318

>  <SCORE.SYSTEM.POLAR>
-3.07715

>  <SCORE.SYSTEM.SOLV>
0.15088

>  <SCORE.SYSTEM.VDW>
-5.37359

>  <SCORE.SYSTEM.norm>
-2.05141

>  <SCORE.heavy>
10

>  <SCORE.norm>
-4.20825

$$$$
P20462346
 OpenBabel12072022113D
libRbt.so/2013.1/901 2013/11/27
 11 11  0  0  0  0  0  0  0  0999 V2000
  -27.7509   12.8865  -17.9782 C   0  0  0  0  0  0  0  0  0  0  0  0
  -27.2255   13.1616  -16.5723 C   0  0  1  0  0  0  0  0  0  0  0  0
  -25.9107   13.9605  -16.5525 C   0  0  1  0  0  0  0  0  0  0  0  0
  -26.1333   15.4319  -16.8954 C   0  0  0  0  0  0  0  0  0  0  0  0
  -27.2674   16.0209  -16.0639 C   0  0  0  0  0  0  0  0  0  0  0  0
  -28.5194   15.1471  -16.1221 C   0  0  1  0  0  0  0  0  0  0  0  0
  -28.2131   13.8035  -15.7509 O   0  0  0  0  0  0  0  0  0  0  0  0
  -29.4629   15.7107  -15.2107 O   0  0  0  0  0  0  0  0  0  0  0  0
  -30.1395   16.8295  -15.7660 C   0  0  0  0  0  0  0  0  0  0  0  0
  -25.3446   13.8906  -15.2379 O   0  0  0  0  0  0  0  0  0  0  0  0
  -24.5051   14.3896  -15.2617 H   0  0  0  0  0  0  0  0  0  0  0  0
  2  1  1  6  0  0  0
  2  7  1  0  0  0  0
  2  3  1  0  0  0  0
  3  4  1  0  0  0  0
  3 10  1  1  0  0  0
  4  5  1  0  0  0  0
  5  6  1  0  0  0  0
  6  7  1  0  0  0  0
  6  8  1  1  0  0  0
  8  9  1  0  0  0  0
 10 11  1  0  0  0  0
M  END
>  <CHROM.0>
-59.42422778,-64.23354162,-64.27114153,-43.19590162,-175.61840554,-62.39099120
-65.99244935,59.53749172,-168.81160348

>  <CHROM.1>
178.85785389,79.94094343,-27.60493906,14.68818851,-16.18032635,0.64257206
0.12715698,-2.66076233

>  <Name>
P20462346

>  <RI>
0

>  <Rbt.Current_Directory>
/home/fstefaniak/projects/zuza/docking/adenine/4TZX

>  <Rbt.Executable>
rbdock ($Id: //depot/dev/client3/rdock/2013.1/src/exe/rbdock.cxx#4 $)

>  <Rbt.Library>
libRbt.so (2013.1, Build901 2013/11/27)

>  <Rbt.Parameter_File>
/home/fstefaniak/progs/rDock//data/scripts/dock_solv.prm

>  <Rbt.Receptor>
4tzx.prm

>  <SCORE>
-42.0403

>  <SCORE.INTER>
-22.3382

>  <SCORE.INTER.CONST>
1

>  <SCORE.INTER.POLAR>
-2.40718

>  <SCORE.INTER.ROT>
1

>  <SCORE.INTER.SOLV>
7.55807

>  <SCORE.INTER.VDW>
-13.6542

>  <SCORE.INTER.norm>
-2.23382

>  <SCORE.INTRA>
0.688448

>  <SCORE.INTRA.DIHEDRAL>
0.00372331

>  <SCORE.INTRA.DIHEDRAL.0>
1.80358

>  <SCORE.INTRA.POLAR>
0.00752285

>  <SCORE.INTRA.POLAR.0>
-0.00752285

>  <SCORE.INTRA.REPUL>
0

>  <SCORE.INTRA.REPUL.0>
0

>  <SCORE.INTRA.SOLV>
-0.0317545

>  <SCORE.INTRA.SOLV.lig_0>
-7.94252

>  <SCORE.INTRA.VDW>
0.676886

>  <SCORE.INTRA.VDW.0>
0.64276

>  <SCORE.INTRA.norm>
0.0688448

>  <SCORE.RESTR>
0

>  <SCORE.RESTR.CAVITY>
0

>  <SCORE.RESTR.norm>
0

>  <SCORE.SYSTEM>
-20.3905

>  <SCORE.SYSTEM.CONST>
0

>  <SCORE.SYSTEM.DIHEDRAL>
4.39181

>  <SCORE.SYSTEM.POLAR>
-3.0517

>  <SCORE.SYSTEM.SOLV>
-0.169027

>  <SCORE.SYSTEM.VDW>
-4.82893

>  <SCORE.SYSTEM.norm>
-2.03905

>  <SCORE.heavy>
10

>  <SCORE.norm>
-4.20403

$$$$
P20462346
 OpenBabel12072022113D
libRbt.so/2013.1/901 2013/11/27
 11 11  0  0  0  0  0  0  0  0999 V2000
  -27.7576   13.0061  -17.9881 C   0  0  0  0  0  0  0  0  0  0  0  0
  -27.2080   13.2712  -16.5895 C   0  0  1  0  0  0  0  0  0  0  0  0
  -25.9158   14.1064  -16.5846 C   0  0  1  0  0  0  0  0  0  0  0  0
  -26.1872   15.5768  -16.8956 C   0  0  0  0  0  0  0  0  0  0  0  0
  -27.3179   16.1188  -16.0282 C   0  0  0  0  0  0  0  0  0  0  0  0
  -28.5461   15.2111  -16.0742 C   0  0  1  0  0  0  0  0  0  0  0  0
  -28.1939   13.8704  -15.7346 O   0  0  0  0  0  0  0  0  0  0  0  0
  -29.4837   15.7316  -15.1317 O   0  0  0  0  0  0  0  0  0  0  0  0
  -30.2325   16.8145  -15.6654 C   0  0  0  0  0  0  0  0  0  0  0  0
  -25.3180   14.0295  -15.2846 O   0  0  0  0  0  0  0  0  0  0  0  0
  -24.4811   14.5317  -15.3251 H   0  0  0  0  0  0  0  0  0  0  0  0
  2  1  1  6  0  0  0
  2  7  1  0  0  0  0
  2  3  1  0  0  0  0
  3  4  1  0  0  0  0
  3 10  1  1  0  0  0
  4  5  1  0  0  0  0
  5  6  1  0  0  0  0
  6  7  1  0  0  0  0
  6  8  1  1  0  0  0
  8  9  1  0  0  0  0
 10 11  1  0  0  0  0
M  END
>  <CHROM.0>
-60.86123901,-175.64139922,-72.02790555,50.97572696,-177.31856903,-61.77773156
-168.97724502,-176.23001254,-168.73296329

>  <CHROM.1>
177.31765360,81.73676392,-27.62359235,14.77650699,-16.16282341,0.62109186
0.09494742,-2.63937475

>  <Name>
P20462346

>  <RI>
0

>  <Rbt.Current_Directory>
/home/fstefaniak/projects/zuza/docking/adenine/4TZX

>  <Rbt.Executable>
rbdock ($Id: //depot/dev/client3/rdock/2013.1/src/exe/rbdock.cxx#4 $)

>  <Rbt.Library>
libRbt.so (2013.1, Build901 2013/11/27)

>  <Rbt.Parameter_File>
/home/fstefaniak/progs/rDock//data/scripts/dock_solv.prm

>  <Rbt.Receptor>
4tzx.prm

>  <SCORE>
-39.574

>  <SCORE.INTER>
-22.6787

>  <SCORE.INTER.CONST>
1

>  <SCORE.INTER.POLAR>
-2.53717

>  <SCORE.INTER.ROT>
1

>  <SCORE.INTER.SOLV>
7.74699

>  <SCORE.INTER.VDW>
-13.5109

>  <SCORE.INTER.norm>
-2.26787

>  <SCORE.INTRA>
0.674784

>  <SCORE.INTRA.DIHEDRAL>
0.332801

>  <SCORE.INTRA.DIHEDRAL.0>
1.80358

>  <SCORE.INTRA.POLAR>
0.00752285

>  <SCORE.INTRA.POLAR.0>
-0.00752285

>  <SCORE.INTRA.REPUL>
0

>  <SCORE.INTRA.REPUL.0>
0

>  <SCORE.INTRA.SOLV>
-0.0299909

>  <SCORE.INTRA.SOLV.lig_0>
-7.94252

>  <SCORE.INTRA.VDW>
0.497801

>  <SCORE.INTRA.VDW.0>
0.64276

>  <SCORE.INTRA.norm>
0.0674784

>  <SCORE.RESTR>
0

>  <SCORE.RESTR.CAVITY>
0

>  <SCORE.RESTR.norm>
0

>  <SCORE.SYSTEM>
-17.5701

>  <SCORE.SYSTEM.CONST>
0

>  <SCORE.SYSTEM.DIHEDRAL>
4.44938

>  <SCORE.SYSTEM.POLAR>
-2.4515

>  <SCORE.SYSTEM.SOLV>
-0.251391

>  <SCORE.SYSTEM.VDW>
-4.94107

>  <SCORE.SYSTEM.norm>
-1.75701

>  <SCORE.heavy>
10

>  <SCORE.norm>
-3.9574

$$$$
P20855218
 OpenBabel12072022113D
libRbt.so/2013.1/901 2013/11/27
 12 12  0  0  0  0  0  0  0  0999 V2000
  -31.8135   18.9180  -17.9592 C   0  0  0  0  0  0  0  0  0  0  0  0
  -30.6255   18.6572  -17.0438 C   0  0  2  0  0  0  0  0  0  0  0  0
  -30.3251   17.1655  -16.8746 C   0  0  2  0  0  0  0  0  0  0  0  0
  -31.1392   16.8229  -15.6438 C   0  0  2  0  0  0  0  0  0  0  0  0
  -30.9514   18.0912  -14.8046 C   0  0  1  0  0  0  0  0  0  0  0  0
  -30.9534   19.1773  -15.7384 O   0  0  0  0  0  0  0  0  0  0  0  0
  -31.9891   18.2452  -13.8503 O   0  0  0  0  0  0  0  0  0  0  0  0
  -30.6794   15.6466  -14.9870 O   0  0  0  0  0  0  0  0  0  0  0  0
  -28.9396   16.9388  -16.5618 O   0  0  0  0  0  0  0  0  0  0  0  0
  -31.7860   17.6425  -13.1147 H   0  0  0  0  0  0  0  0  0  0  0  0
  -30.8844   14.9144  -15.6061 H   0  0  0  0  0  0  0  0  0  0  0  0
  -28.4479   16.9306  -17.4034 H   0  0  0  0  0  0  0  0  0  0  0  0
  2  6  1  0  0  0  0
  2  1  1  6  0  0  0
  2  3  1  0  0  0  0
  3  9  1  1  0  0  0
  3  4  1  0  0  0  0
  4  8  1  1  0  0  0
  4  5  1  0  0  0  0
  5  6  1  0  0  0  0
  5  7  1  1  0  0  0
  7 10  1  0  0  0  0
  8 11  1  0  0  0  0
  9 12  1  0  0  0  0
M  END
>  <CHROM.0>
-60.94541114,-63.74127590,-66.57051793,-43.80404664,-56.85840340,-61.17683552
-68.24686382,-59.04431217,-169.22290357

>  <CHROM.1>
-83.66309066,-68.10481873,78.35494802,-30.81239134,17.70875156,-15.89965444
1.49576993,0.91804794,-0.94724954

>  <Name>
P20855218

>  <RI>
0

>  <Rbt.Current_Directory>
/home/fstefaniak/projects/zuza/docking/adenine/4TZX

>  <Rbt.Executable>
rbdock ($Id: //depot/dev/client3/rdock/2013.1/src/exe/rbdock.cxx#4 $)

>  <Rbt.Library>
libRbt.so (2013.1, Build901 2013/11/27)

>  <Rbt.Parameter_File>
/home/fstefaniak/progs/rDock//data/scripts/dock_solv.prm

>  <Rbt.Receptor>
4tzx.prm

>  <SCORE>
-55.6392

>  <SCORE.INTER>
-32.7354

>  <SCORE.INTER.CONST>
1

>  <SCORE.INTER.POLAR>
-4.64558

>  <SCORE.INTER.ROT>
0

>  <SCORE.INTER.SOLV>
12.9589

>  <SCORE.INTER.VDW>
-14.2579

>  <SCORE.INTER.norm>
-3.63726

>  <SCORE.INTRA>
-1.72313

>  <SCORE.INTRA.DIHEDRAL>
-3.49822

>  <SCORE.INTRA.DIHEDRAL.0>
7.99085

>  <SCORE.INTRA.POLAR>
0.341765

>  <SCORE.INTRA.POLAR.0>
-0.341765

>  <SCORE.INTRA.REPUL>
0

>  <SCORE.INTRA.REPUL.0>
0

>  <SCORE.INTRA.SOLV>
-0.0640072

>  <SCORE.INTRA.SOLV.lig_0>
-16.441

>  <SCORE.INTRA.VDW>
-1.10401

>  <SCORE.INTRA.VDW.0>
0.796924

>  <SCORE.INTRA.norm>
-0.191458

>  <SCORE.RESTR>
0

>  <SCORE.RESTR.CAVITY>
0

>  <SCORE.RESTR.norm>
0

>  <SCORE.SYSTEM>
-21.1807

>  <SCORE.SYSTEM.CONST>
0

>  <SCORE.SYSTEM.DIHEDRAL>
4.44871

>  <SCORE.SYSTEM.POLAR>
-3.0288

>  <SCORE.SYSTEM.SOLV>
0.179758

>  <SCORE.SYSTEM.VDW>
-5.5673

>  <SCORE.SYSTEM.norm>
-2.35341

>  <SCORE.heavy>
9

>  <SCORE.norm>
-6.18214

$$$$
P20855218
 OpenBabel12072022113D
libRbt.so/2013.1/901 2013/11/27
 12 12  0  0  0  0  0  0  0  0999 V2000
  -29.9154   15.7795  -15.8359 C   0  0  0  0  0  0  0  0  0  0  0  0
  -29.8822   17.2991  -15.9213 C   0  0  2  0  0  0  0  0  0  0  0  0
  -31.2801   17.9176  -16.0069 C   0  0  2  0  0  0  0  0  0  0  0  0
  -31.4907   18.0019  -17.5047 C   0  0  2  0  0  0  0  0  0  0  0  0
  -30.0832   18.3792  -17.9789 C   0  0  1  0  0  0  0  0  0  0  0  0
  -29.1824   17.6566  -17.1315 O   0  0  0  0  0  0  0  0  0  0  0  0
  -29.8802   18.0355  -19.3396 O   0  0  0  0  0  0  0  0  0  0  0  0
  -32.4778   18.9600  -17.8709 O   0  0  0  0  0  0  0  0  0  0  0  0
  -31.2965   19.2579  -15.4851 O   0  0  0  0  0  0  0  0  0  0  0  0
  -30.4989   18.5748  -19.8610 H   0  0  0  0  0  0  0  0  0  0  0  0
  -32.1888   19.7959  -17.4474 H   0  0  0  0  0  0  0  0  0  0  0  0
  -31.0132   19.2119  -14.5535 H   0  0  0  0  0  0  0  0  0  0  0  0
  2  6  1  0  0  0  0
  2  1  1  6  0  0  0
  2  3  1  0  0  0  0
  3  9  1  6  0  0  0
  3  4  1  0  0  0  0
  4  8  1  1  0  0  0
  4  5  1  0  0  0  0
  5  6  1  0  0  0  0
  5  7  1  6  0  0  0
  7 10  1  0  0  0  0
  8 11  1  0  0  0  0
  9 12  1  0  0  0  0
M  END
>  <CHROM.0>
-58.25241043,-179.23776931,-67.09870497,-42.39717122,-58.59867715,-59.33876183
-68.18785514,-57.96480299,-168.47127239

>  <CHROM.1>
-59.72432110,54.20505691,64.10929603,-30.62229142,17.96681519,-17.03684274
-1.05398951,0.70808277,-1.30430459

>  <Name>
P20855218

>  <RI>
0

>  <Rbt.Current_Directory>
/home/fstefaniak/projects/zuza/docking/adenine/4TZX

>  <Rbt.Executable>
rbdock ($Id: //depot/dev/client3/rdock/2013.1/src/exe/rbdock.cxx#4 $)

>  <Rbt.Library>
libRbt.so (2013.1, Build901 2013/11/27)

>  <Rbt.Parameter_File>
/home/fstefaniak/progs/rDock//data/scripts/dock_solv.prm

>  <Rbt.Receptor>
4tzx.prm

>  <SCORE>
-55.3513

>  <SCORE.INTER>
-30.7892

>  <SCORE.INTER.CONST>
1

>  <SCORE.INTER.POLAR>
-4.73996

>  <SCORE.INTER.ROT>
0

>  <SCORE.INTER.SOLV>
14.3309

>  <SCORE.INTER.VDW>
-13.1032

>  <SCORE.INTER.norm>
-3.42102

>  <SCORE.INTRA>
-3.6192

>  <SCORE.INTRA.DIHEDRAL>
-7.34319

>  <SCORE.INTRA.DIHEDRAL.0>
7.99085

>  <SCORE.INTRA.POLAR>
0.229479

>  <SCORE.INTRA.POLAR.0>
-0.341765

>  <SCORE.INTRA.REPUL>
0

>  <SCORE.INTRA.REPUL.0>
0

>  <SCORE.INTRA.SOLV>
0.0244604

>  <SCORE.INTRA.SOLV.lig_0>
-16.441

>  <SCORE.INTRA.VDW>
-0.740063

>  <SCORE.INTRA.VDW.0>
0.796924

>  <SCORE.INTRA.norm>
-0.402133

>  <SCORE.RESTR>
0

>  <SCORE.RESTR.CAVITY>
0

>  <SCORE.RESTR.norm>
0

>  <SCORE.SYSTEM>
-20.9429

>  <SCORE.SYSTEM.CONST>
0

>  <SCORE.SYSTEM.DIHEDRAL>
4.66784

>  <SCORE.SYSTEM.POLAR>
-3.07163

>  <SCORE.SYSTEM.SOLV>
0.166073

>  <SCORE.SYSTEM.VDW>
-5.33447

>  <SCORE.SYSTEM.norm>
-2.32699

>  <SCORE.heavy>
9

>  <SCORE.norm>
-6.15014

$$$$
P20855218
 OpenBabel12072022113D
libRbt.so/2013.1/901 2013/11/27
 12 12  0  0  0  0  0  0  0  0999 V2000
  -29.9215   15.8658  -16.0379 C   0  0  0  0  0  0  0  0  0  0  0  0
  -29.9082   17.3880  -16.0600 C   0  0  2  0  0  0  0  0  0  0  0  0
  -31.3074   17.9940  -15.9221 C   0  0  2  0  0  0  0  0  0  0  0  0
  -31.7261   18.1402  -17.3706 C   0  0  2  0  0  0  0  0  0  0  0  0
  -30.4009   18.5531  -18.0197 C   0  0  1  0  0  0  0  0  0  0  0  0
  -29.3866   17.8048  -17.3392 O   0  0  0  0  0  0  0  0  0  0  0  0
  -30.3888   18.2704  -19.4093 O   0  0  0  0  0  0  0  0  0  0  0  0
  -32.7597   19.1020  -17.5527 O   0  0  0  0  0  0  0  0  0  0  0  0
  -31.2572   19.3104  -15.3446 O   0  0  0  0  0  0  0  0  0  0  0  0
  -30.7849   17.3893  -19.5203 H   0  0  0  0  0  0  0  0  0  0  0  0
  -32.8051   19.2445  -18.5218 H   0  0  0  0  0  0  0  0  0  0  0  0
  -30.9601   19.2129  -14.4213 H   0  0  0  0  0  0  0  0  0  0  0  0
  2  6  1  0  0  0  0
  2  1  1  6  0  0  0
  2  3  1  0  0  0  0
  3  9  1  6  0  0  0
  3  4  1  0  0  0  0
  4  8  1  1  0  0  0
  4  5  1  0  0  0  0
  5  6  1  0  0  0  0
  5  7  1  6  0  0  0
  7 10  1  0  0  0  0
  8 11  1  0  0  0  0
  9 12  1  0  0  0  0
M  END
>  <CHROM.0>
-159.07189076,178.45160247,-65.24419521,-43.37356804,-57.61895755,-62.93204599
-68.86685399,-60.23242174,-169.39264438

>  <CHROM.1>
-67.30727354,168.22117171,-42.63066260,-30.80217539,18.07868902,-17.03854653
-0.86752414,0.72535413,-1.40499157

>  <Name>
P20855218

>  <RI>
0

>  <Rbt.Current_Directory>
/home/fstefaniak/projects/zuza/docking/adenine/4TZX

>  <Rbt.Executable>
rbdock ($Id: //depot/dev/client3/rdock/2013.1/src/exe/rbdock.cxx#4 $)

>  <Rbt.Library>
libRbt.so (2013.1, Build901 2013/11/27)

>  <Rbt.Parameter_File>
/home/fstefaniak/progs/rDock//data/scripts/dock_solv.prm

>  <Rbt.Receptor>
4tzx.prm

>  <SCORE>
-55.3465

>  <SCORE.INTER>
-35.9069

>  <SCORE.INTER.CONST>
1

>  <SCORE.INTER.POLAR>
-5.75181

>  <SCORE.INTER.ROT>
0

>  <SCORE.INTER.SOLV>
14.613

>  <SCORE.INTER.VDW>
-13.2362

>  <SCORE.INTER.norm>
-3.98965

>  <SCORE.INTRA>
-2.28056

>  <SCORE.INTRA.DIHEDRAL>
-5.32168

>  <SCORE.INTRA.DIHEDRAL.0>
7.99085

>  <SCORE.INTRA.POLAR>
0.341765

>  <SCORE.INTRA.POLAR.0>
-0.341765

>  <SCORE.INTRA.REPUL>
0

>  <SCORE.INTRA.REPUL.0>
0

>  <SCORE.INTRA.SOLV>
-0.0923551

>  <SCORE.INTRA.SOLV.lig_0>
-16.441

>  <SCORE.INTRA.VDW>
-0.735548

>  <SCORE.INTRA.VDW.0>
0.796924

>  <SCORE.INTRA.norm>
-0.253396

>  <SCORE.RESTR>
0

>  <SCORE.RESTR.CAVITY>
0

>  <SCORE.RESTR.norm>
0

>  <SCORE.SYSTEM>
-17.159

>  <SCORE.SYSTEM.CONST>
0

>  <SCORE.SYSTEM.DIHEDRAL>
6.23282

>  <SCORE.SYSTEM.POLAR>
-2.4632

>  <SCORE.SYSTEM.SOLV>
0.130152

>  <SCORE.SYSTEM.VDW>
-5.34967

>  <SCORE.SYSTEM.norm>
-1.90656

>  <SCORE.heavy>
9

>  <SCORE.norm>
-6.14961

$$$$
P21190230
 OpenBabel12072022113D
libRbt.so/2013.1/901 2013/11/27
 13 13  0  0  0  0  0  0  0  0999 V2000
  -28.9219   15.6718  -16.1417 C   0  0  0  0  0  0  0  0  0  0  0  0
  -29.5092   17.0641  -15.9055 C   0  0  1  0  0  0  0  0  0  0  0  0
  -30.4949   17.4327  -16.9870 C   0  0  0  0  0  0  0  0  0  0  0  0
  -30.4858   18.8201  -17.5824 C   0  0  0  0  0  0  0  0  0  0  0  0
  -30.0321   17.6488  -18.4075 C   0  0  0  0  0  0  0  0  0  0  0  0
  -30.1454   17.1695  -14.5896 N   0  0  0  0  0  0  0  0  0  0  0  0
  -31.1916   18.0335  -14.3502 C   0  0  0  0  0  0  0  0  0  0  0  0
  -31.3866   19.1023  -14.9131 O   0  0  0  0  0  0  0  0  0  0  0  0
  -32.0538   17.5836  -13.3875 N   0  0  0  0  0  0  0  0  0  0  0  0
  -29.2551   16.9338  -13.5079 O   0  0  0  0  0  0  0  0  0  0  0  0
  -32.9080   18.1254  -13.3247 H   0  0  0  0  0  0  0  0  0  0  0  0
  -31.5930   17.4367  -12.4971 H   0  0  0  0  0  0  0  0  0  0  0  0
  -28.8315   17.8087  -13.4019 H   0  0  0  0  0  0  0  0  0  0  0  0
  2  1  1  6  0  0  0
  2  3  1  0  0  0  0
  2  6  1  0  0  0  0
  3  4  1  0  0  0  0
  3  5  1  0  0  0  0
  4  5  1  0  0  0  0
  6  7  1  0  0  0  0
  6 10  1  0  0  0  0
  7  8  2  0  0  0  0
  7  9  1  0  0  0  0
  9 11  1  0  0  0  0
  9 12  1  0  0  0  0
 10 13  1  0  0  0  0
M  END
>  <CHROM.0>
-59.11465356,-62.09090408,-62.06844979,-42.76905915,59.74225899,-177.06538184
-66.59759486,-57.21747498,-169.54552334

>  <CHROM.1>
-137.19526442,-151.61093126,-29.93765108,83.05274729,-169.53870886,-30.34576556
17.54833643,-15.49672042,-1.23341641,-0.77527416,1.79958800

>  <Name>
P21190230

>  <RI>
0

>  <Rbt.Current_Directory>
/home/fstefaniak/projects/zuza/docking/adenine/4TZX

>  <Rbt.Executable>
rbdock ($Id: //depot/dev/client3/rdock/2013.1/src/exe/rbdock.cxx#4 $)

>  <Rbt.Library>
libRbt.so (2013.1, Build901 2013/11/27)

>  <Rbt.Parameter_File>
/home/fstefaniak/progs/rDock//data/scripts/dock_solv.prm

>  <Rbt.Receptor>
4tzx.prm

>  <SCORE>
-56.8095

>  <SCORE.INTER>
-37.3362

>  <SCORE.INTER.CONST>
1

>  <SCORE.INTER.POLAR>
-5.22673

>  <SCORE.INTER.ROT>
4

>  <SCORE.INTER.SOLV>
14.7339

>  <SCORE.INTER.VDW>
-18.6463

>  <SCORE.INTER.norm>
-3.73362

>  <SCORE.INTRA>
0.558038

>  <SCORE.INTRA.DIHEDRAL>
-1.23905

>  <SCORE.INTRA.DIHEDRAL.0>
5.47517

>  <SCORE.INTRA.POLAR>
0.110042

>  <SCORE.INTRA.POLAR.0>
-0.110042

>  <SCORE.INTRA.REPUL>
0

>  <SCORE.INTRA.REPUL.0>
0

>  <SCORE.INTRA.SOLV>
-0.195311

>  <SCORE.INTRA.SOLV.lig_0>
-16.261

>  <SCORE.INTRA.VDW>
0.901079

>  <SCORE.INTRA.VDW.0>
-0.10653

>  <SCORE.INTRA.norm>
0.0558038

>  <SCORE.RESTR>
0

>  <SCORE.RESTR.CAVITY>
0

>  <SCORE.RESTR.norm>
0

>  <SCORE.SYSTEM>
-20.0314

>  <SCORE.SYSTEM.CONST>
0

>  <SCORE.SYSTEM.DIHEDRAL>
4.25306

>  <SCORE.SYSTEM.POLAR>
-3.0507

>  <SCORE.SYSTEM.SOLV>
-0.137792

>  <SCORE.SYSTEM.VDW>
-4.55702

>  <SCORE.SYSTEM.norm>
-2.00314

>  <SCORE.heavy>
10

>  <SCORE.norm>
-5.68095

$$$$
P21190230
 OpenBabel12072022113D
libRbt.so/2013.1/901 2013/11/27
 13 13  0  0  0  0  0  0  0  0999 V2000
  -29.0214   15.6104  -15.8848 C   0  0  0  0  0  0  0  0  0  0  0  0
  -29.5099   17.0536  -15.7512 C   0  0  1  0  0  0  0  0  0  0  0  0
  -30.4722   17.4100  -16.8575 C   0  0  0  0  0  0  0  0  0  0  0  0
  -30.4254   18.7786  -17.4934 C   0  0  0  0  0  0  0  0  0  0  0  0
  -29.9848   17.5742  -18.2768 C   0  0  0  0  0  0  0  0  0  0  0  0
  -30.1319   17.2982  -14.4470 N   0  0  0  0  0  0  0  0  0  0  0  0
  -31.2557   18.0832  -14.3085 C   0  0  0  0  0  0  0  0  0  0  0  0
  -31.9686   18.4876  -15.2171 O   0  0  0  0  0  0  0  0  0  0  0  0
  -31.5415   18.3917  -13.0063 N   0  0  0  0  0  0  0  0  0  0  0  0
  -29.2048   17.3194  -13.3708 O   0  0  0  0  0  0  0  0  0  0  0  0
  -31.2334   17.6864  -12.3468 H   0  0  0  0  0  0  0  0  0  0  0  0
  -32.5052   18.6787  -12.8818 H   0  0  0  0  0  0  0  0  0  0  0  0
  -29.0523   18.2783  -13.2556 H   0  0  0  0  0  0  0  0  0  0  0  0
  2  1  1  1  0  0  0
  2  3  1  0  0  0  0
  2  6  1  0  0  0  0
  3  4  1  0  0  0  0
  3  5  1  0  0  0  0
  4  5  1  0  0  0  0
  6  7  1  0  0  0  0
  6 10  1  0  0  0  0
  7  8  2  0  0  0  0
  7  9  1  0  0  0  0
  9 11  1  0  0  0  0
  9 12  1  0  0  0  0
 10 13  1  0  0  0  0
M  END
>  <CHROM.0>
-58.94893973,61.38798921,-68.68488155,-42.74339341,-177.68124272,-62.03653271
-68.25791866,-174.49358982,-168.34811284

>  <CHROM.1>
-141.03109254,-140.81722308,11.65102388,97.69980103,-29.09534046,-30.35315546
17.60628413,-15.38193904,-1.30345432,-0.72702416,1.64175119

>  <Name>
P21190230

>  <RI>
0

>  <Rbt.Current_Directory>
/home/fstefaniak/projects/zuza/docking/adenine/4TZX

>  <Rbt.Executable>
rbdock ($Id: //depot/dev/client3/rdock/2013.1/src/exe/rbdock.cxx#4 $)

>  <Rbt.Library>
libRbt.so (2013.1, Build901 2013/11/27)

>  <Rbt.Parameter_File>
/home/fstefaniak/progs/rDock//data/scripts/dock_solv.prm

>  <Rbt.Receptor>
4tzx.prm

>  <SCORE>
-56.5363

>  <SCORE.INTER>
-40.1097

>  <SCORE.INTER.CONST>
1

>  <SCORE.INTER.POLAR>
-5.59415

>  <SCORE.INTER.ROT>
4

>  <SCORE.INTER.SOLV>
14.0463

>  <SCORE.INTER.VDW>
-19.0414

>  <SCORE.INTER.norm>
-4.01097

>  <SCORE.INTRA>
3.98844

>  <SCORE.INTRA.DIHEDRAL>
-0.558789

>  <SCORE.INTRA.DIHEDRAL.0>
5.47517

>  <SCORE.INTRA.POLAR>
0.110042

>  <SCORE.INTRA.POLAR.0>
-0.110042

>  <SCORE.INTRA.REPUL>
0

>  <SCORE.INTRA.REPUL.0>
0

>  <SCORE.INTRA.SOLV>
0.0754681

>  <SCORE.INTRA.SOLV.lig_0>
-16.261

>  <SCORE.INTRA.VDW>
3.85596

>  <SCORE.INTRA.VDW.0>
-0.10653

>  <SCORE.INTRA.norm>
0.398844

>  <SCORE.RESTR>
0

>  <SCORE.RESTR.CAVITY>
0

>  <SCORE.RESTR.norm>
0

>  <SCORE.SYSTEM>
-20.415

>  <SCORE.SYSTEM.CONST>
0

>  <SCORE.SYSTEM.DIHEDRAL>
4.89356

>  <SCORE.SYSTEM.POLAR>
-3.05207

>  <SCORE.SYSTEM.SOLV>
-0.082479

>  <SCORE.SYSTEM.VDW>
-5.04012

>  <SCORE.SYSTEM.norm>
-2.0415

>  <SCORE.heavy>
10

>  <SCORE.norm>
-5.65363

$$$$
P21190230
 OpenBabel12072022113D
libRbt.so/2013.1/901 2013/11/27
 13 13  0  0  0  0  0  0  0  0999 V2000
  -29.6194   17.1431  -17.0292 C   0  0  0  0  0  0  0  0  0  0  0  0
  -29.9089   16.3036  -15.7840 C   0  0  1  0  0  0  0  0  0  0  0  0
  -28.8414   15.2590  -15.5681 C   0  0  0  0  0  0  0  0  0  0  0  0
  -28.4950   14.2878  -16.6710 C   0  0  0  0  0  0  0  0  0  0  0  0
  -27.5144   15.3577  -16.2809 C   0  0  0  0  0  0  0  0  0  0  0  0
  -30.0448   17.1369  -14.5862 N   0  0  0  0  0  0  0  0  0  0  0  0
  -31.0721   18.0431  -14.4386 C   0  0  0  0  0  0  0  0  0  0  0  0
  -31.7496   18.5176  -15.3404 O   0  0  0  0  0  0  0  0  0  0  0  0
  -31.3018   18.3912  -13.1352 N   0  0  0  0  0  0  0  0  0  0  0  0
  -28.8022   17.4817  -13.9903 O   0  0  0  0  0  0  0  0  0  0  0  0
  -30.9850   17.6958  -12.4693 H   0  0  0  0  0  0  0  0  0  0  0  0
  -32.2535   18.7037  -12.9828 H   0  0  0  0  0  0  0  0  0  0  0  0
  -29.0216   18.3209  -13.5390 H   0  0  0  0  0  0  0  0  0  0  0  0
  2  1  1  6  0  0  0
  2  3  1  0  0  0  0
  2  6  1  0  0  0  0
  3  4  1  0  0  0  0
  3  5  1  0  0  0  0
  4  5  1  0  0  0  0
  6  7  1  0  0  0  0
  6 10  1  0  0  0  0
  7  8  2  0  0  0  0
  7  9  1  0  0  0  0
  9 11  1  0  0  0  0
  9 12  1  0  0  0  0
 10 13  1  0  0  0  0
M  END
>  <CHROM.0>
-57.22594832,-62.82763311,-70.66340330,-44.09607022,-178.41132077,-69.46251676
-170.90312564,-172.44918386,-168.91463387

>  <CHROM.1>
-54.52525167,65.24875977,-20.15631813,153.66322657,-23.76935781,-29.75639173
16.85440240,-15.23647474,0.72599110,0.66269716,-1.91541809

>  <Name>
P21190230

>  <RI>
0

>  <Rbt.Current_Directory>
/home/fstefaniak/projects/zuza/docking/adenine/4TZX

>  <Rbt.Executable>
rbdock ($Id: //depot/dev/client3/rdock/2013.1/src/exe/rbdock.cxx#4 $)

>  <Rbt.Library>
libRbt.so (2013.1, Build901 2013/11/27)

>  <Rbt.Parameter_File>
/home/fstefaniak/progs/rDock//data/scripts/dock_solv.prm

>  <Rbt.Receptor>
4tzx.prm

>  <SCORE>
-56.257

>  <SCORE.INTER>
-40.2711

>  <SCORE.INTER.CONST>
1

>  <SCORE.INTER.POLAR>
-6.12175

>  <SCORE.INTER.ROT>
4

>  <SCORE.INTER.SOLV>
13.2476

>  <SCORE.INTER.VDW>
-17.1241

>  <SCORE.INTER.norm>
-4.02711

>  <SCORE.INTRA>
4.61458

>  <SCORE.INTRA.DIHEDRAL>
0.0611013

>  <SCORE.INTRA.DIHEDRAL.0>
5.47517

>  <SCORE.INTRA.POLAR>
0.026283

>  <SCORE.INTRA.POLAR.0>
-0.110042

>  <SCORE.INTRA.REPUL>
0

>  <SCORE.INTRA.REPUL.0>
0

>  <SCORE.INTRA.SOLV>
-0.11112

>  <SCORE.INTRA.SOLV.lig_0>
-16.261

>  <SCORE.INTRA.VDW>
4.55023

>  <SCORE.INTRA.VDW.0>
-0.10653

>  <SCORE.INTRA.norm>
0.461458

>  <SCORE.RESTR>
0

>  <SCORE.RESTR.CAVITY>
0

>  <SCORE.RESTR.norm>
0

>  <SCORE.SYSTEM>
-20.6004

>  <SCORE.SYSTEM.CONST>
0

>  <SCORE.SYSTEM.DIHEDRAL>
5.42744

>  <SCORE.SYSTEM.POLAR>
-3.03081

>  <SCORE.SYSTEM.SOLV>
-0.175148

>  <SCORE.SYSTEM.VDW>
-5.3817

>  <SCORE.SYSTEM.norm>
-2.06004

>  <SCORE.heavy>
10

>  <SCORE.norm>
-5.6257

$$$$
P22525129
 OpenBabel12072022113D
libRbt.so/2013.1/901 2013/11/27
 15 15  0  0  0  0  0  0  0  0999 V2000
  -29.8347   17.6384  -17.8663 C   0  0  0  0  0  0  0  0  0  0  0  0
  -29.1737   17.2526  -16.5704 C   0  0  0  0  0  0  0  0  0  0  0  0
  -28.1178   16.6133  -16.5641 O   0  0  0  0  0  0  0  0  0  0  0  0
  -29.8136   17.5773  -15.2614 C   0  0  0  0  0  0  0  0  0  0  0  0
  -31.2169   17.6905  -15.2325 C   0  0  0  0  0  0  0  0  0  0  0  0
  -31.8869   18.0384  -14.0645 C   0  0  0  0  0  0  0  0  0  0  0  0
  -31.1646   18.2675  -12.8987 C   0  0  0  0  0  0  0  0  0  0  0  0
  -29.7737   18.1290  -12.9026 C   0  0  0  0  0  0  0  0  0  0  0  0
  -29.0813   17.7570  -14.0704 C   0  0  0  0  0  0  0  0  0  0  0  0
  -27.7243   17.5781  -14.1438 O   0  0  0  0  0  0  0  0  0  0  0  0
  -26.8970   18.6452  -13.6925 C   0  0  0  0  0  0  0  0  0  0  0  0
  -29.0983   18.3913  -11.7411 O   0  0  0  0  0  0  0  0  0  0  0  0
  -32.0122   17.4759  -16.3291 O   0  0  0  0  0  0  0  0  0  0  0  0
  -28.3650   17.7611  -11.6442 H   0  0  0  0  0  0  0  0  0  0  0  0
  -32.9287   17.3108  -16.0086 H   0  0  0  0  0  0  0  0  0  0  0  0
  1  2  1  0  0  0  0
  2  3  2  0  0  0  0
  2  4  1  0  0  0  0
  4  5  2  0  0  0  0
  4  9  1  0  0  0  0
  5  6  1  0  0  0  0
  5 13  1  0  0  0  0
  6  7  2  0  0  0  0
  7  8  1  0  0  0  0
  8  9  2  0  0  0  0
  8 12  1  0  0  0  0
  9 10  1  0  0  0  0
 10 11  1  0  0  0  0
 12 14  1  0  0  0  0
 13 15  1  0  0  0  0
M  END
>  <CHROM.0>
-63.99779220,79.26729784,-63.35361600,51.38530052,60.04024051,178.33621182
-65.62660886,-60.80283179,-169.06222511

>  <CHROM.1>
27.32046976,161.06111018,142.28369236,125.25431595,-29.62583012,17.76457275
-14.72785666,-1.94452071,-0.03288631,1.33905753

>  <Name>
P22525129

>  <RI>
0

>  <Rbt.Current_Directory>
/home/fstefaniak/projects/zuza/docking/adenine/4TZX

>  <Rbt.Executable>
rbdock ($Id: //depot/dev/client3/rdock/2013.1/src/exe/rbdock.cxx#4 $)

>  <Rbt.Library>
libRbt.so (2013.1, Build901 2013/11/27)

>  <Rbt.Parameter_File>
/home/fstefaniak/progs/rDock//data/scripts/dock_solv.prm

>  <Rbt.Receptor>
4tzx.prm

>  <SCORE>
-35.8025

>  <SCORE.INTER>
-21.8817

>  <SCORE.INTER.CONST>
1

>  <SCORE.INTER.POLAR>
-4.18196

>  <SCORE.INTER.ROT>
2

>  <SCORE.INTER.SOLV>
14.104

>  <SCORE.INTER.VDW>
-10.2826

>  <SCORE.INTER.norm>
-1.68321

>  <SCORE.INTRA>
1.09123

>  <SCORE.INTRA.DIHEDRAL>
3.97422

>  <SCORE.INTRA.DIHEDRAL.0>
4.43341

>  <SCORE.INTRA.POLAR>
0.008947

>  <SCORE.INTRA.POLAR.0>
-0.008947

>  <SCORE.INTRA.REPUL>
0

>  <SCORE.INTRA.REPUL.0>
0

>  <SCORE.INTRA.SOLV>
0.00345117

>  <SCORE.INTRA.SOLV.lig_0>
-13.2835

>  <SCORE.INTRA.VDW>
-0.928026

>  <SCORE.INTRA.VDW.0>
4.13314

>  <SCORE.INTRA.norm>
0.0839407

>  <SCORE.RESTR>
0

>  <SCORE.RESTR.CAVITY>
0

>  <SCORE.RESTR.norm>
0

>  <SCORE.SYSTEM>
-15.0121

>  <SCORE.SYSTEM.CONST>
0

>  <SCORE.SYSTEM.DIHEDRAL>
4.92979

>  <SCORE.SYSTEM.POLAR>
-2.4531

>  <SCORE.SYSTEM.SOLV>
-0.209332

>  <SCORE.SYSTEM.VDW>
-3.40451

>  <SCORE.SYSTEM.norm>
-1.15477

>  <SCORE.heavy>
13

>  <SCORE.norm>
-2.75404

$$$$
P22525129
 OpenBabel12072022113D
libRbt.so/2013.1/901 2013/11/27
 15 15  0  0  0  0  0  0  0  0999 V2000
  -29.8488   17.6701  -17.8767 C   0  0  0  0  0  0  0  0  0  0  0  0
  -29.1770   17.2783  -16.5883 C   0  0  0  0  0  0  0  0  0  0  0  0
  -28.1182   16.6436  -16.5939 O   0  0  0  0  0  0  0  0  0  0  0  0
  -29.8088   17.5912  -15.2726 C   0  0  0  0  0  0  0  0  0  0  0  0
  -31.2129   17.6886  -15.2308 C   0  0  0  0  0  0  0  0  0  0  0  0
  -31.8765   18.0249  -14.0558 C   0  0  0  0  0  0  0  0  0  0  0  0
  -31.1466   18.2580  -12.8956 C   0  0  0  0  0  0  0  0  0  0  0  0
  -29.7543   18.1351  -12.9122 C   0  0  0  0  0  0  0  0  0  0  0  0
  -29.0681   17.7750  -14.0874 C   0  0  0  0  0  0  0  0  0  0  0  0
  -27.7099   17.6116  -14.1733 O   0  0  0  0  0  0  0  0  0  0  0  0
  -26.8900   18.6447  -13.6373 C   0  0  0  0  0  0  0  0  0  0  0  0
  -29.0716   18.4009  -11.7557 O   0  0  0  0  0  0  0  0  0  0  0  0
  -32.0155   17.4690  -16.3212 O   0  0  0  0  0  0  0  0  0  0  0  0
  -28.3409   17.7677  -11.6589 H   0  0  0  0  0  0  0  0  0  0  0  0
  -32.9345   17.3304  -15.9955 H   0  0  0  0  0  0  0  0  0  0  0  0
  1  2  1  0  0  0  0
  2  3  2  0  0  0  0
  2  4  1  0  0  0  0
  4  5  2  0  0  0  0
  4  9  1  0  0  0  0
  5  6  1  0  0  0  0
  5 13  1  0  0  0  0
  6  7  2  0  0  0  0
  7  8  1  0  0  0  0
  8  9  2  0  0  0  0
  8 12  1  0  0  0  0
  9 10  1  0  0  0  0
 10 11  1  0  0  0  0
 12 14  1  0  0  0  0
 13 15  1  0  0  0  0
M  END
>  <CHROM.0>
-63.48086415,86.82020807,-62.63842105,51.90234589,-179.83802555,177.72805413
-68.92219181,55.44671165,-169.25327143

>  <CHROM.1>
27.76462750,163.42699139,141.19974359,129.67670451,-29.61849365,17.77553732
-14.73267450,-1.95666463,-0.02623206,1.34266703

>  <Name>
P22525129

>  <RI>
0

>  <Rbt.Current_Directory>
/home/fstefaniak/projects/zuza/docking/adenine/4TZX

>  <Rbt.Executable>
rbdock ($Id: //depot/dev/client3/rdock/2013.1/src/exe/rbdock.cxx#4 $)

>  <Rbt.Library>
libRbt.so (2013.1, Build901 2013/11/27)

>  <Rbt.Parameter_File>
/home/fstefaniak/progs/rDock//data/scripts/dock_solv.prm

>  <Rbt.Receptor>
4tzx.prm

>  <SCORE>
-35.7239

>  <SCORE.INTER>
-22.9427

>  <SCORE.INTER.CONST>
1

>  <SCORE.INTER.POLAR>
-4.4098

>  <SCORE.INTER.ROT>
2

>  <SCORE.INTER.SOLV>
14.112

>  <SCORE.INTER.VDW>
-10.2331

>  <SCORE.INTER.norm>
-1.76482

>  <SCORE.INTRA>
1.33675

>  <SCORE.INTRA.DIHEDRAL>
3.67119

>  <SCORE.INTRA.DIHEDRAL.0>
4.43341

>  <SCORE.INTRA.POLAR>
0.008947

>  <SCORE.INTRA.POLAR.0>
-0.008947

>  <SCORE.INTRA.REPUL>
0

>  <SCORE.INTRA.REPUL.0>
0

>  <SCORE.INTRA.SOLV>
0.00783998

>  <SCORE.INTRA.SOLV.lig_0>
-13.2835

>  <SCORE.INTRA.VDW>
-0.533185

>  <SCORE.INTRA.VDW.0>
4.13314

>  <SCORE.INTRA.norm>
0.102827

>  <SCORE.RESTR>
0

>  <SCORE.RESTR.CAVITY>
0

>  <SCORE.RESTR.norm>
0

>  <SCORE.SYSTEM>
-14.1179

>  <SCORE.SYSTEM.CONST>
0

>  <SCORE.SYSTEM.DIHEDRAL>
6.44337

>  <SCORE.SYSTEM.POLAR>
-2.45074

>  <SCORE.SYSTEM.SOLV>
-0.353672

>  <SCORE.SYSTEM.VDW>
-3.27271

>  <SCORE.SYSTEM.norm>
-1.08599

>  <SCORE.heavy>
13

>  <SCORE.norm>
-2.74799

$$$$
P22525129
 OpenBabel12072022113D
libRbt.so/2013.1/901 2013/11/27
 15 15  0  0  0  0  0  0  0  0999 V2000
  -30.7292   18.5698  -18.5415 C   0  0  0  0  0  0  0  0  0  0  0  0
  -30.2325   17.4576  -17.6577 C   0  0  0  0  0  0  0  0  0  0  0  0
  -29.8896   16.3730  -18.1372 O   0  0  0  0  0  0  0  0  0  0  0  0
  -30.2045   17.6170  -16.1737 C   0  0  0  0  0  0  0  0  0  0  0  0
  -31.4075   17.9718  -15.5338 C   0  0  0  0  0  0  0  0  0  0  0  0
  -31.4558   18.1879  -14.1608 C   0  0  0  0  0  0  0  0  0  0  0  0
  -30.3016   18.0403  -13.3996 C   0  0  0  0  0  0  0  0  0  0  0  0
  -29.1060   17.6582  -14.0146 C   0  0  0  0  0  0  0  0  0  0  0  0
  -29.0438   17.4149  -15.3998 C   0  0  0  0  0  0  0  0  0  0  0  0
  -27.9155   17.0143  -16.0670 O   0  0  0  0  0  0  0  0  0  0  0  0
  -27.7180   15.6150  -16.2398 C   0  0  0  0  0  0  0  0  0  0  0  0
  -27.9866   17.5518  -13.2336 O   0  0  0  0  0  0  0  0  0  0  0  0
  -32.5956   18.1324  -16.1999 O   0  0  0  0  0  0  0  0  0  0  0  0
  -28.2497   17.3951  -12.3114 H   0  0  0  0  0  0  0  0  0  0  0  0
  -33.0831   17.2778  -16.1564 H   0  0  0  0  0  0  0  0  0  0  0  0
  1  2  1  0  0  0  0
  2  3  2  0  0  0  0
  2  4  1  0  0  0  0
  4  5  2  0  0  0  0
  4  9  1  0  0  0  0
  5  6  1  0  0  0  0
  5 13  1  0  0  0  0
  6  7  2  0  0  0  0
  7  8  1  0  0  0  0
  8  9  2  0  0  0  0
  8 12  1  0  0  0  0
  9 10  1  0  0  0  0
 10 11  1  0  0  0  0
 12 14  1  0  0  0  0
 13 15  1  0  0  0  0
M  END
>  <CHROM.0>
-60.14225305,-62.23558122,62.01172455,-43.12828591,-57.93464207,-64.00830656
56.91073284,-58.89136924,-167.21579376

>  <CHROM.1>
54.93456536,94.07578479,23.89164010,-88.55839582,-29.86279998,17.47796629
-15.78046411,-2.20532750,-0.40003491,1.38942777

>  <Name>
P22525129

>  <RI>
0

>  <Rbt.Current_Directory>
/home/fstefaniak/projects/zuza/docking/adenine/4TZX

>  <Rbt.Executable>
rbdock ($Id: //depot/dev/client3/rdock/2013.1/src/exe/rbdock.cxx#4 $)

>  <Rbt.Library>
libRbt.so (2013.1, Build901 2013/11/27)

>  <Rbt.Parameter_File>
/home/fstefaniak/progs/rDock//data/scripts/dock_solv.prm

>  <Rbt.Receptor>
4tzx.prm

>  <SCORE>
-35.3404

>  <SCORE.INTER>
-19.0381

>  <SCORE.INTER.CONST>
1

>  <SCORE.INTER.POLAR>
-2.80037

>  <SCORE.INTER.ROT>
2

>  <SCORE.INTER.SOLV>
14.483

>  <SCORE.INTER.VDW>
-13.1185

>  <SCORE.INTER.norm>
-1.46447

>  <SCORE.INTRA>
2.77686

>  <SCORE.INTRA.DIHEDRAL>
14.6832

>  <SCORE.INTRA.DIHEDRAL.0>
4.43341

>  <SCORE.INTRA.POLAR>
0.008947

>  <SCORE.INTRA.POLAR.0>
-0.008947

>  <SCORE.INTRA.REPUL>
0

>  <SCORE.INTRA.REPUL.0>
0

>  <SCORE.INTRA.SOLV>
-0.0650034

>  <SCORE.INTRA.SOLV.lig_0>
-13.2835

>  <SCORE.INTRA.VDW>
-4.56264

>  <SCORE.INTRA.VDW.0>
4.13314

>  <SCORE.INTRA.norm>
0.213604

>  <SCORE.RESTR>
0

>  <SCORE.RESTR.CAVITY>
0

>  <SCORE.RESTR.norm>
0

>  <SCORE.SYSTEM>
-19.0791

>  <SCORE.SYSTEM.CONST>
0

>  <SCORE.SYSTEM.DIHEDRAL>
4.30037

>  <SCORE.SYSTEM.POLAR>
-3.03719

>  <SCORE.SYSTEM.SOLV>
0.0711351

>  <SCORE.SYSTEM.VDW>
-4.05262

>  <SCORE.SYSTEM.norm>
-1.46763

>  <SCORE.heavy>
13

>  <SCORE.norm>
-2.71849

$$$$
P22525140
 OpenBabel12072022113D
libRbt.so/2013.1/901 2013/11/27
 15 15  0  0  0  0  0  0  0  0999 V2000
  -30.4841   18.4866  -19.3614 C   0  0  0  0  0  0  0  0  0  0  0  0
  -31.3623   18.3363  -18.1482 C   0  0  0  0  0  0  0  0  0  0  0  0
  -32.5786   18.5163  -18.2186 O   0  0  0  0  0  0  0  0  0  0  0  0
  -30.7547   18.0003  -16.8291 C   0  0  0  0  0  0  0  0  0  0  0  0
  -29.3903   17.6485  -16.8301 C   0  0  0  0  0  0  0  0  0  0  0  0
  -28.7470   17.3112  -15.6407 C   0  0  0  0  0  0  0  0  0  0  0  0
  -29.4805   17.3381  -14.4508 C   0  0  0  0  0  0  0  0  0  0  0  0
  -30.8231   17.6968  -14.4246 C   0  0  0  0  0  0  0  0  0  0  0  0
  -31.4601   18.0335  -15.6185 C   0  0  0  0  0  0  0  0  0  0  0  0
  -32.7692   18.4222  -15.5801 O   0  0  0  0  0  0  0  0  0  0  0  0
  -28.8802   17.0123  -13.2646 O   0  0  0  0  0  0  0  0  0  0  0  0
  -27.4341   16.9428  -15.5042 O   0  0  0  0  0  0  0  0  0  0  0  0
  -26.9775   15.8894  -16.3471 C   0  0  0  0  0  0  0  0  0  0  0  0
  -33.2230   17.9530  -14.8582 H   0  0  0  0  0  0  0  0  0  0  0  0
  -28.7871   17.8593  -12.7846 H   0  0  0  0  0  0  0  0  0  0  0  0
  1  2  1  0  0  0  0
  2  3  2  0  0  0  0
  2  4  1  0  0  0  0
  4  5  2  0  0  0  0
  4  9  1  0  0  0  0
  5  6  1  0  0  0  0
  6  7  2  0  0  0  0
  6 12  1  0  0  0  0
  7  8  1  0  0  0  0
  7 11  1  0  0  0  0
  8  9  2  0  0  0  0
  9 10  1  0  0  0  0
 10 14  1  0  0  0  0
 11 15  1  0  0  0  0
 12 13  1  0  0  0  0
M  END
>  <CHROM.0>
-57.78185324,-63.14573140,-63.72945154,-43.32947937,-61.26481539,-178.98308263
-66.41838267,-61.44791353,-168.61903516

>  <CHROM.1>
-8.96928118,-52.08926291,107.66993947,148.99952834,-30.08181704,17.65632309
-16.14819339,-2.50266198,-0.33885607,1.67665261

>  <Name>
P22525140

>  <RI>
0

>  <Rbt.Current_Directory>
/home/fstefaniak/projects/zuza/docking/adenine/4TZX

>  <Rbt.Executable>
rbdock ($Id: //depot/dev/client3/rdock/2013.1/src/exe/rbdock.cxx#4 $)

>  <Rbt.Library>
libRbt.so (2013.1, Build901 2013/11/27)

>  <Rbt.Parameter_File>
/home/fstefaniak/progs/rDock//data/scripts/dock_solv.prm

>  <Rbt.Receptor>
4tzx.prm

>  <SCORE>
-41.6179

>  <SCORE.INTER>
-23.4316

>  <SCORE.INTER.CONST>
1

>  <SCORE.INTER.POLAR>
-3.065

>  <SCORE.INTER.ROT>
2

>  <SCORE.INTER.SOLV>
14.675

>  <SCORE.INTER.VDW>
-15.2294

>  <SCORE.INTER.norm>
-1.80243

>  <SCORE.INTRA>
2.75845

>  <SCORE.INTRA.DIHEDRAL>
6.22143

>  <SCORE.INTRA.DIHEDRAL.0>
2.73165

>  <SCORE.INTRA.POLAR>
0.336957

>  <SCORE.INTRA.POLAR.0>
-0.336957

>  <SCORE.INTRA.REPUL>
0

>  <SCORE.INTRA.REPUL.0>
0

>  <SCORE.INTRA.SOLV>
0.161034

>  <SCORE.INTRA.SOLV.lig_0>
-14.039

>  <SCORE.INTRA.VDW>
-1.57843

>  <SCORE.INTRA.VDW.0>
3.54349

>  <SCORE.INTRA.norm>
0.212188

>  <SCORE.RESTR>
0

>  <SCORE.RESTR.CAVITY>
0

>  <SCORE.RESTR.norm>
0

>  <SCORE.SYSTEM>
-20.9448

>  <SCORE.SYSTEM.CONST>
0

>  <SCORE.SYSTEM.DIHEDRAL>
4.28571

>  <SCORE.SYSTEM.POLAR>
-3.06251

>  <SCORE.SYSTEM.SOLV>
0.0685765

>  <SCORE.SYSTEM.VDW>
-5.20624

>  <SCORE.SYSTEM.norm>
-1.61114

>  <SCORE.heavy>
13

>  <SCORE.norm>
-3.20138

$$$$
P22525140
 OpenBabel12072022113D
libRbt.so/2013.1/901 2013/11/27
 15 15  0  0  0  0  0  0  0  0999 V2000
  -30.4704   18.5210  -19.3293 C   0  0  0  0  0  0  0  0  0  0  0  0
  -31.3561   18.3659  -18.1222 C   0  0  0  0  0  0  0  0  0  0  0  0
  -32.5731   18.5372  -18.2014 O   0  0  0  0  0  0  0  0  0  0  0  0
  -30.7554   18.0355  -16.7984 C   0  0  0  0  0  0  0  0  0  0  0  0
  -29.3838   17.7133  -16.7866 C   0  0  0  0  0  0  0  0  0  0  0  0
  -28.7461   17.3832  -15.5922 C   0  0  0  0  0  0  0  0  0  0  0  0
  -29.4927   17.3875  -14.4101 C   0  0  0  0  0  0  0  0  0  0  0  0
  -30.8430   17.7169  -14.3966 C   0  0  0  0  0  0  0  0  0  0  0  0
  -31.4743   18.0466  -15.5954 C   0  0  0  0  0  0  0  0  0  0  0  0
  -32.7919   18.4066  -15.5690 O   0  0  0  0  0  0  0  0  0  0  0  0
  -28.8982   17.0680  -13.2194 O   0  0  0  0  0  0  0  0  0  0  0  0
  -27.4270   17.0425  -15.4436 O   0  0  0  0  0  0  0  0  0  0  0  0
  -26.9235   16.0454  -16.3271 C   0  0  0  0  0  0  0  0  0  0  0  0
  -33.2356   17.9497  -14.8331 H   0  0  0  0  0  0  0  0  0  0  0  0
  -28.8536   17.9092  -12.7226 H   0  0  0  0  0  0  0  0  0  0  0  0
  1  2  1  0  0  0  0
  2  3  2  0  0  0  0
  2  4  1  0  0  0  0
  4  5  2  0  0  0  0
  4  9  1  0  0  0  0
  5  6  1  0  0  0  0
  6  7  2  0  0  0  0
  6 12  1  0  0  0  0
  7  8  1  0  0  0  0
  7 11  1  0  0  0  0
  8  9  2  0  0  0  0
  9 10  1  0  0  0  0
 10 14  1  0  0  0  0
 11 15  1  0  0  0  0
 12 13  1  0  0  0  0
M  END
>  <CHROM.0>
-60.00063100,-171.52192678,-63.81178920,-44.29344720,-57.52580679,-174.40472939
-68.47259545,-57.87950664,-168.90570691

>  <CHROM.1>
-8.02435813,-49.41649472,109.35334462,151.16458187,-30.08143671,17.70561116
-16.11538023,-2.49609318,-0.31423633,1.68420750

>  <Name>
P22525140

>  <RI>
0

>  <Rbt.Current_Directory>
/home/fstefaniak/projects/zuza/docking/adenine/4TZX

>  <Rbt.Executable>
rbdock ($Id: //depot/dev/client3/rdock/2013.1/src/exe/rbdock.cxx#4 $)

>  <Rbt.Library>
libRbt.so (2013.1, Build901 2013/11/27)

>  <Rbt.Parameter_File>
/home/fstefaniak/progs/rDock//data/scripts/dock_solv.prm

>  <Rbt.Receptor>
4tzx.prm

>  <SCORE>
-41.4257

>  <SCORE.INTER>
-23.3174

>  <SCORE.INTER.CONST>
1

>  <SCORE.INTER.POLAR>
-3.10115

>  <SCORE.INTER.ROT>
2

>  <SCORE.INTER.SOLV>
14.6069

>  <SCORE.INTER.VDW>
-15.0101

>  <SCORE.INTER.norm>
-1.79365

>  <SCORE.INTRA>
2.63206

>  <SCORE.INTRA.DIHEDRAL>
5.69917

>  <SCORE.INTRA.DIHEDRAL.0>
2.73165

>  <SCORE.INTRA.POLAR>
0.336957

>  <SCORE.INTRA.POLAR.0>
-0.336957

>  <SCORE.INTRA.REPUL>
0

>  <SCORE.INTRA.REPUL.0>
0

>  <SCORE.INTRA.SOLV>
0.152327

>  <SCORE.INTRA.SOLV.lig_0>
-14.039

>  <SCORE.INTRA.VDW>
-1.43934

>  <SCORE.INTRA.VDW.0>
3.54349

>  <SCORE.INTRA.norm>
0.202466

>  <SCORE.RESTR>
0

>  <SCORE.RESTR.CAVITY>
0

>  <SCORE.RESTR.norm>
0

>  <SCORE.SYSTEM>
-20.7403

>  <SCORE.SYSTEM.CONST>
0

>  <SCORE.SYSTEM.DIHEDRAL>
4.70427

>  <SCORE.SYSTEM.POLAR>
-3.02829

>  <SCORE.SYSTEM.SOLV>
0.0359765

>  <SCORE.SYSTEM.VDW>
-5.31267

>  <SCORE.SYSTEM.norm>
-1.59541

>  <SCORE.heavy>
13

>  <SCORE.norm>
-3.18659

$$$$
P22525140
 OpenBabel12072022113D
libRbt.so/2013.1/901 2013/11/27
 15 15  0  0  0  0  0  0  0  0999 V2000
  -30.4747   18.5062  -19.3613 C   0  0  0  0  0  0  0  0  0  0  0  0
  -31.3552   18.3707  -18.1480 C   0  0  0  0  0  0  0  0  0  0  0  0
  -32.5690   18.5658  -18.2194 O   0  0  0  0  0  0  0  0  0  0  0  0
  -30.7523   18.0309  -16.8276 C   0  0  0  0  0  0  0  0  0  0  0  0
  -29.3826   17.7004  -16.8216 C   0  0  0  0  0  0  0  0  0  0  0  0
  -28.7431   17.3613  -15.6307 C   0  0  0  0  0  0  0  0  0  0  0  0
  -29.4860   17.3647  -14.4463 C   0  0  0  0  0  0  0  0  0  0  0  0
  -30.8342   17.7021  -14.4269 C   0  0  0  0  0  0  0  0  0  0  0  0
  -31.4673   18.0409  -15.6223 C   0  0  0  0  0  0  0  0  0  0  0  0
  -32.7826   18.4086  -15.5901 O   0  0  0  0  0  0  0  0  0  0  0  0
  -28.8896   17.0364  -13.2588 O   0  0  0  0  0  0  0  0  0  0  0  0
  -27.4256   17.0121  -15.4878 O   0  0  0  0  0  0  0  0  0  0  0  0
  -26.9411   15.9881  -16.3510 C   0  0  0  0  0  0  0  0  0  0  0  0
  -33.2321   17.9331  -14.8696 H   0  0  0  0  0  0  0  0  0  0  0  0
  -28.6856   17.8917  -12.8307 H   0  0  0  0  0  0  0  0  0  0  0  0
  1  2  1  0  0  0  0
  2  3  2  0  0  0  0
  2  4  1  0  0  0  0
  4  5  2  0  0  0  0
  4  9  1  0  0  0  0
  5  6  1  0  0  0  0
  6  7  2  0  0  0  0
  6 12  1  0  0  0  0
  7  8  1  0  0  0  0
  7 11  1  0  0  0  0
  8  9  2  0  0  0  0
  9 10  1  0  0  0  0
 10 14  1  0  0  0  0
 11 15  1  0  0  0  0
 12 13  1  0  0  0  0
M  END
>  <CHROM.0>
-61.22949128,-60.94500569,-72.94956393,-42.89838697,-55.06323296,-62.23529949
-164.33768963,-61.22482446,-169.09221365

>  <CHROM.1>
-7.13453575,-51.19619652,99.03403544,149.67130050,-30.07815560,17.69142807
-16.14657010,-2.49883584,-0.32349376,1.68614109

>  <Name>
P22525140

>  <RI>
0

>  <Rbt.Current_Directory>
/home/fstefaniak/projects/zuza/docking/adenine/4TZX

>  <Rbt.Executable>
rbdock ($Id: //depot/dev/client3/rdock/2013.1/src/exe/rbdock.cxx#4 $)

>  <Rbt.Library>
libRbt.so (2013.1, Build901 2013/11/27)

>  <Rbt.Parameter_File>
/home/fstefaniak/progs/rDock//data/scripts/dock_solv.prm

>  <Rbt.Receptor>
4tzx.prm

>  <SCORE>
-41.246

>  <SCORE.INTER>
-23.6568

>  <SCORE.INTER.CONST>
1

>  <SCORE.INTER.POLAR>
-3.17548

>  <SCORE.INTER.ROT>
2

>  <SCORE.INTER.SOLV>
14.6926

>  <SCORE.INTER.VDW>
-15.0171

>  <SCORE.INTER.norm>
-1.81976

>  <SCORE.INTRA>
2.83018

>  <SCORE.INTRA.DIHEDRAL>
6.31833

>  <SCORE.INTRA.DIHEDRAL.0>
2.73165

>  <SCORE.INTRA.POLAR>
0.336957

>  <SCORE.INTRA.POLAR.0>
-0.336957

>  <SCORE.INTRA.REPUL>
0

>  <SCORE.INTRA.REPUL.0>
0

>  <SCORE.INTRA.SOLV>
0.161546

>  <SCORE.INTRA.SOLV.lig_0>
-14.039

>  <SCORE.INTRA.VDW>
-1.55541

>  <SCORE.INTRA.VDW.0>
3.54349

>  <SCORE.INTRA.norm>
0.217706

>  <SCORE.RESTR>
0

>  <SCORE.RESTR.CAVITY>
0

>  <SCORE.RESTR.norm>
0

>  <SCORE.SYSTEM>
-20.4194

>  <SCORE.SYSTEM.CONST>
0

>  <SCORE.SYSTEM.DIHEDRAL>
5.90634

>  <SCORE.SYSTEM.POLAR>
-3.03071

>  <SCORE.SYSTEM.SOLV>
0.157233

>  <SCORE.SYSTEM.VDW>
-5.53176

>  <SCORE.SYSTEM.norm>
-1.57072

>  <SCORE.heavy>
13

>  <SCORE.norm>
-3.17277

$$$$
P23843064
 OpenBabel12072022113D
libRbt.so/2013.1/901 2013/11/27
 15 15  0  0  0  0  0  0  0  0999 V2000
  -28.9203   16.5944  -16.4133 C   0  0  0  0  0  0  0  0  0  0  0  0
  -27.9640   15.4773  -16.2568 C   0  0  0  0  0  0  0  0  0  0  0  0
  -26.5869   15.3881  -16.1312 C   0  0  0  0  0  0  0  0  0  0  0  0
  -26.3145   13.9808  -16.0195 C   0  0  0  0  0  0  0  0  0  0  0  0
  -27.5243   13.3270  -16.0989 C   0  0  0  0  0  0  0  0  0  0  0  0
  -28.5279   14.2388  -16.2331 O   0  0  0  0  0  0  0  0  0  0  0  0
  -27.9227   11.9034  -16.0584 C   0  0  0  0  0  0  0  0  0  0  0  0
  -24.9905   13.3546  -15.8420 C   0  0  0  0  0  0  0  0  0  0  0  0
  -24.4602   12.7684  -16.8201 O   0  0  0  0  0  0  0  0  0  0  0  0
  -24.5264   13.4324  -14.6526 O   0  5  0  0  0  0  0  0  0  0  0  0
  -25.5963   16.4951  -16.1444 C   0  0  0  0  0  0  0  0  0  0  0  0
  -24.5930   16.3571  -17.2071 N   0  3  0  0  0  0  0  0  0  0  0  0
  -24.0105   17.1874  -17.3161 H   0  0  0  0  0  0  0  0  0  0  0  0
  -23.9142   15.6364  -16.8304 H   0  0  0  0  0  0  0  0  0  0  0  0
  -24.9280   15.9838  -18.0909 H   0  0  0  0  0  0  0  0  0  0  0  0
  1  2  1  0  0  0  0
  2  3  2  0  0  0  0
  2  6  1  0  0  0  0
  3  4  1  0  0  0  0
  3 11  1  0  0  0  0
  4  5  2  0  0  0  0
  4  8  1  0  0  0  0
  5  6  1  0  0  0  0
  5  7  1  0  0  0  0
  8  9  2  0  0  0  0
  8 10  1  0  0  0  0
 11 12  1  0  0  0  0
 12 13  1  0  0  0  0
 12 14  1  0  0  0  0
 12 15  1  0  0  0  0
M  CHG  2  10  -1  12   1
M  END
>  <CHROM.0>
-56.24939623,44.56974292,-64.70538597,-42.24557425,-174.86178233,-59.25604523
-65.75234647,-58.58336111,-168.93443777

>  <CHROM.1>
-121.45660430,-105.54279840,170.44551787,-26.44382419,14.44769644,-16.17600190
-2.58679636,0.00046785,2.97191629

>  <Name>
P23843064

>  <RI>
0

>  <Rbt.Current_Directory>
/home/fstefaniak/projects/zuza/docking/adenine/4TZX

>  <Rbt.Executable>
rbdock ($Id: //depot/dev/client3/rdock/2013.1/src/exe/rbdock.cxx#4 $)

>  <Rbt.Library>
libRbt.so (2013.1, Build901 2013/11/27)

>  <Rbt.Parameter_File>
/home/fstefaniak/progs/rDock//data/scripts/dock_solv.prm

>  <Rbt.Receptor>
4tzx.prm

>  <SCORE>
-42.6367

>  <SCORE.INTER>
-24.9919

>  <SCORE.INTER.CONST>
1

>  <SCORE.INTER.POLAR>
-3.4725

>  <SCORE.INTER.ROT>
2

>  <SCORE.INTER.SOLV>
24.0411

>  <SCORE.INTER.VDW>
-18.0333

>  <SCORE.INTER.norm>
-2.08266

>  <SCORE.INTRA>
2.60753

>  <SCORE.INTRA.DIHEDRAL>
11.2176

>  <SCORE.INTRA.DIHEDRAL.0>
1.55387

>  <SCORE.INTRA.POLAR>
0.352815

>  <SCORE.INTRA.POLAR.0>
-0.352815

>  <SCORE.INTRA.REPUL>
0

>  <SCORE.INTRA.REPUL.0>
0

>  <SCORE.INTRA.SOLV>
-2.82188

>  <SCORE.INTRA.SOLV.lig_0>
-45.6611

>  <SCORE.INTRA.VDW>
-2.78988

>  <SCORE.INTRA.VDW.0>
0.938716

>  <SCORE.INTRA.norm>
0.217294

>  <SCORE.RESTR>
0

>  <SCORE.RESTR.CAVITY>
0

>  <SCORE.RESTR.norm>
0

>  <SCORE.SYSTEM>
-20.2524

>  <SCORE.SYSTEM.CONST>
0

>  <SCORE.SYSTEM.DIHEDRAL>
5.60465

>  <SCORE.SYSTEM.POLAR>
-3.1698

>  <SCORE.SYSTEM.SOLV>
0.131199

>  <SCORE.SYSTEM.VDW>
-4.84755

>  <SCORE.SYSTEM.norm>
-1.6877

>  <SCORE.heavy>
12

>  <SCORE.norm>
-3.55306

$$$$
P23843064
 OpenBabel12072022113D
libRbt.so/2013.1/901 2013/11/27
 15 15  0  0  0  0  0  0  0  0999 V2000
  -24.0763   12.1110  -13.6085 C   0  0  0  0  0  0  0  0  0  0  0  0
  -25.0630   12.5826  -14.6040 C   0  0  0  0  0  0  0  0  0  0  0  0
  -26.2496   12.0767  -15.1102 C   0  0  0  0  0  0  0  0  0  0  0  0
  -26.6959   13.0581  -16.0613 C   0  0  0  0  0  0  0  0  0  0  0  0
  -25.7564   14.0653  -16.0746 C   0  0  0  0  0  0  0  0  0  0  0  0
  -24.7686   13.7798  -15.1804 O   0  0  0  0  0  0  0  0  0  0  0  0
  -25.6258   15.3331  -16.8247 C   0  0  0  0  0  0  0  0  0  0  0  0
  -27.9327   13.0033  -16.8640 C   0  0  0  0  0  0  0  0  0  0  0  0
  -28.4143   11.8802  -17.1609 O   0  0  0  0  0  0  0  0  0  0  0  0
  -28.3734   14.1466  -17.2311 O   0  5  0  0  0  0  0  0  0  0  0  0
  -26.9068   10.7868  -14.7770 C   0  0  0  0  0  0  0  0  0  0  0  0
  -27.9798   10.9268  -13.7849 N   0  3  0  0  0  0  0  0  0  0  0  0
  -28.3236   10.0306  -13.4399 H   0  0  0  0  0  0  0  0  0  0  0  0
  -27.4966   11.3400  -12.9376 H   0  0  0  0  0  0  0  0  0  0  0  0
  -28.7238   11.5773  -14.0216 H   0  0  0  0  0  0  0  0  0  0  0  0
  1  2  1  0  0  0  0
  2  3  2  0  0  0  0
  2  6  1  0  0  0  0
  3  4  1  0  0  0  0
  3 11  1  0  0  0  0
  4  5  2  0  0  0  0
  4  8  1  0  0  0  0
  5  6  1  0  0  0  0
  5  7  1  0  0  0  0
  8  9  2  0  0  0  0
  8 10  1  0  0  0  0
 11 12  1  0  0  0  0
 12 13  1  0  0  0  0
 12 14  1  0  0  0  0
 12 15  1  0  0  0  0
M  CHG  2  10  -1  12   1
M  END
>  <CHROM.0>
-57.69944719,-59.56595677,-66.86738465,-41.39747356,-176.71616394,-58.73746745
-66.28192860,60.13274482,-168.25119740

>  <CHROM.1>
98.18594324,-28.00044363,-170.30305120,-26.53072025,12.79823172,-15.58809931
-0.90488854,-0.47121365,-0.69586746

>  <Name>
P23843064

>  <RI>
0

>  <Rbt.Current_Directory>
/home/fstefaniak/projects/zuza/docking/adenine/4TZX

>  <Rbt.Executable>
rbdock ($Id: //depot/dev/client3/rdock/2013.1/src/exe/rbdock.cxx#4 $)

>  <Rbt.Library>
libRbt.so (2013.1, Build901 2013/11/27)

>  <Rbt.Parameter_File>
/home/fstefaniak/progs/rDock//data/scripts/dock_solv.prm

>  <Rbt.Receptor>
4tzx.prm

>  <SCORE>
-39.6594

>  <SCORE.INTER>
-18.0325

>  <SCORE.INTER.CONST>
1

>  <SCORE.INTER.POLAR>
-2.9109

>  <SCORE.INTER.ROT>
2

>  <SCORE.INTER.SOLV>
16.4494

>  <SCORE.INTER.VDW>
-12.7352

>  <SCORE.INTER.norm>
-1.50271

>  <SCORE.INTRA>
-1.96317

>  <SCORE.INTRA.DIHEDRAL>
2.07337

>  <SCORE.INTRA.DIHEDRAL.0>
1.55387

>  <SCORE.INTRA.POLAR>
0.352815

>  <SCORE.INTRA.POLAR.0>
-0.352815

>  <SCORE.INTRA.REPUL>
0

>  <SCORE.INTRA.REPUL.0>
0

>  <SCORE.INTRA.SOLV>
-4.23956

>  <SCORE.INTRA.SOLV.lig_0>
-45.6611

>  <SCORE.INTRA.VDW>
-2.07965

>  <SCORE.INTRA.VDW.0>
0.938716

>  <SCORE.INTRA.norm>
-0.163598

>  <SCORE.RESTR>
0.549219

>  <SCORE.RESTR.CAVITY>
0.549219

>  <SCORE.RESTR.norm>
0.0457682

>  <SCORE.SYSTEM>
-20.2129

>  <SCORE.SYSTEM.CONST>
0

>  <SCORE.SYSTEM.DIHEDRAL>
4.73625

>  <SCORE.SYSTEM.POLAR>
-3.08666

>  <SCORE.SYSTEM.SOLV>
-0.156705

>  <SCORE.SYSTEM.VDW>
-4.71294

>  <SCORE.SYSTEM.norm>
-1.68441

>  <SCORE.heavy>
12

>  <SCORE.norm>
-3.30495

$$$$
P23843064
 OpenBabel12072022113D
libRbt.so/2013.1/901 2013/11/27
 15 15  0  0  0  0  0  0  0  0999 V2000
  -23.9794   12.0907  -13.7185 C   0  0  0  0  0  0  0  0  0  0  0  0
  -24.9949   12.5739  -14.6788 C   0  0  0  0  0  0  0  0  0  0  0  0
  -26.2093   12.0869  -15.1351 C   0  0  0  0  0  0  0  0  0  0  0  0
  -26.6739   13.0701  -16.0757 C   0  0  0  0  0  0  0  0  0  0  0  0
  -25.7171   14.0593  -16.1327 C   0  0  0  0  0  0  0  0  0  0  0  0
  -24.7010   13.7614  -15.2752 O   0  0  0  0  0  0  0  0  0  0  0  0
  -25.5922   15.3193  -16.8968 C   0  0  0  0  0  0  0  0  0  0  0  0
  -27.9415   13.0329  -16.8297 C   0  0  0  0  0  0  0  0  0  0  0  0
  -28.4208   11.9172  -17.1567 O   0  0  0  0  0  0  0  0  0  0  0  0
  -28.4111   14.1849  -17.1275 O   0  5  0  0  0  0  0  0  0  0  0  0
  -26.8769   10.8118  -14.7671 C   0  0  0  0  0  0  0  0  0  0  0  0
  -27.8939   10.9755  -13.7212 N   0  3  0  0  0  0  0  0  0  0  0  0
  -28.6948   11.5285  -14.0265 H   0  0  0  0  0  0  0  0  0  0  0  0
  -28.3035   10.0056  -13.6043 H   0  0  0  0  0  0  0  0  0  0  0  0
  -27.5501   11.2413  -12.8026 H   0  0  0  0  0  0  0  0  0  0  0  0
  1  2  1  0  0  0  0
  2  3  2  0  0  0  0
  2  6  1  0  0  0  0
  3  4  1  0  0  0  0
  3 11  1  0  0  0  0
  4  5  2  0  0  0  0
  4  8  1  0  0  0  0
  5  6  1  0  0  0  0
  5  7  1  0  0  0  0
  8  9  2  0  0  0  0
  8 10  1  0  0  0  0
 11 12  1  0  0  0  0
 12 13  1  0  0  0  0
 12 14  1  0  0  0  0
 12 15  1  0  0  0  0
M  CHG  2  10  -1  12   1
M  END
>  <CHROM.0>
-59.38019416,-176.11927266,-63.94651421,-42.92026803,-51.44211093,-59.81051391
-68.34886265,-61.67564590,-168.66521844

>  <CHROM.1>
97.32442031,-31.47323708,66.32033881,-26.49592827,12.80828723,-15.60694265
-0.88702193,-0.43069242,-0.69492045

>  <Name>
P23843064

>  <RI>
0

>  <Rbt.Current_Directory>
/home/fstefaniak/projects/zuza/docking/adenine/4TZX

>  <Rbt.Executable>
rbdock ($Id: //depot/dev/client3/rdock/2013.1/src/exe/rbdock.cxx#4 $)

>  <Rbt.Library>
libRbt.so (2013.1, Build901 2013/11/27)

>  <Rbt.Parameter_File>
/home/fstefaniak/progs/rDock//data/scripts/dock_solv.prm

>  <Rbt.Receptor>
4tzx.prm

>  <SCORE>
-39.2275

>  <SCORE.INTER>
-16.8668

>  <SCORE.INTER.CONST>
1

>  <SCORE.INTER.POLAR>
-2.75881

>  <SCORE.INTER.ROT>
2

>  <SCORE.INTER.SOLV>
16.2801

>  <SCORE.INTER.VDW>
-12.4085

>  <SCORE.INTER.norm>
-1.40556

>  <SCORE.INTRA>
-1.97657

>  <SCORE.INTRA.DIHEDRAL>
2.63571

>  <SCORE.INTRA.DIHEDRAL.0>
1.55387

>  <SCORE.INTRA.POLAR>
0.352815

>  <SCORE.INTRA.POLAR.0>
-0.352815

>  <SCORE.INTRA.REPUL>
0

>  <SCORE.INTRA.REPUL.0>
0

>  <SCORE.INTRA.SOLV>
-4.63876

>  <SCORE.INTRA.SOLV.lig_0>
-45.6611

>  <SCORE.INTRA.VDW>
-2.17461

>  <SCORE.INTRA.VDW.0>
0.938716

>  <SCORE.INTRA.norm>
-0.164714

>  <SCORE.RESTR>
0.539349

>  <SCORE.RESTR.CAVITY>
0.539349

>  <SCORE.RESTR.norm>
0.0449457

>  <SCORE.SYSTEM>
-20.9235

>  <SCORE.SYSTEM.CONST>
0

>  <SCORE.SYSTEM.DIHEDRAL>
4.79585

>  <SCORE.SYSTEM.POLAR>
-3.07823

>  <SCORE.SYSTEM.SOLV>
0.163577

>  <SCORE.SYSTEM.VDW>
-5.34134

>  <SCORE.SYSTEM.norm>
-1.74362

>  <SCORE.heavy>
12

>  <SCORE.norm>
-3.26895

$$$$
P23868837
 OpenBabel12072022113D
libRbt.so/2013.1/901 2013/11/27
 10 10  0  0  0  0  0  0  0  0999 V2000
  -27.3725   16.3194  -16.1281 C   0  0  0  0  0  0  0  0  0  0  0  0
  -28.8125   15.8256  -16.1670 C   0  0  0  0  0  0  0  0  0  0  0  0
  -29.4890   16.2631  -14.9804 O   0  0  0  0  0  0  0  0  0  0  0  0
  -30.7982   16.6185  -15.4229 C   0  0  0  0  0  0  0  0  0  0  0  0
  -30.5705   17.1485  -16.8167 C   0  0  2  0  0  0  0  0  0  0  0  0
  -29.4731   16.3665  -17.3229 O   0  0  0  0  0  0  0  0  0  0  0  0
  -30.1719   18.6256  -16.8297 C   0  0  0  0  0  0  0  0  0  0  0  0
  -31.2910   19.4251  -16.4451 O   0  0  0  0  0  0  0  0  0  0  0  0
  -28.8603   14.3022  -16.2497 C   0  0  0  0  0  0  0  0  0  0  0  0
  -31.0374   20.3476  -16.6434 H   0  0  0  0  0  0  0  0  0  0  0  0
  1  2  1  0  0  0  0
  2  3  1  0  0  0  0
  2  6  1  0  0  0  0
  2  9  1  0  0  0  0
  3  4  1  0  0  0  0
  4  5  1  0  0  0  0
  5  6  1  0  0  0  0
  5  7  1  1  0  0  0
  7  8  1  0  0  0  0
  8 10  1  0  0  0  0
M  END
>  <CHROM.0>
-59.67634330,-179.32206076,-66.35428773,-43.36171496,-57.58829257,-60.73461427
-68.51085377,-174.79551679,-168.98864305

>  <CHROM.1>
-69.84632769,-168.92798230,-29.66122838,16.80883177,-16.26093677,-0.92348174
0.37947331,-0.39508166

>  <Name>
P23868837

>  <RI>
0

>  <Rbt.Current_Directory>
/home/fstefaniak/projects/zuza/docking/adenine/4TZX

>  <Rbt.Executable>
rbdock ($Id: //depot/dev/client3/rdock/2013.1/src/exe/rbdock.cxx#4 $)

>  <Rbt.Library>
libRbt.so (2013.1, Build901 2013/11/27)

>  <Rbt.Parameter_File>
/home/fstefaniak/progs/rDock//data/scripts/dock_solv.prm

>  <Rbt.Receptor>
4tzx.prm

>  <SCORE>
-38.3205

>  <SCORE.INTER>
-17.4581

>  <SCORE.INTER.CONST>
1

>  <SCORE.INTER.POLAR>
-2.68941

>  <SCORE.INTER.ROT>
1

>  <SCORE.INTER.SOLV>
9.1197

>  <SCORE.INTER.VDW>
-9.98058

>  <SCORE.INTER.norm>
-1.93978

>  <SCORE.INTRA>
0.19242

>  <SCORE.INTRA.DIHEDRAL>
0.154825

>  <SCORE.INTRA.DIHEDRAL.0>
0.836658

>  <SCORE.INTRA.POLAR>
0.0803713

>  <SCORE.INTRA.POLAR.0>
-0.0803713

>  <SCORE.INTRA.REPUL>
0

>  <SCORE.INTRA.REPUL.0>
0

>  <SCORE.INTRA.SOLV>
-0.129934

>  <SCORE.INTRA.SOLV.lig_0>
-8.26396

>  <SCORE.INTRA.VDW>
-0.0932875

>  <SCORE.INTRA.VDW.0>
-0.14052

>  <SCORE.INTRA.norm>
0.02138

>  <SCORE.RESTR>
0

>  <SCORE.RESTR.CAVITY>
0

>  <SCORE.RESTR.norm>
0

>  <SCORE.SYSTEM>
-21.0549

>  <SCORE.SYSTEM.CONST>
0

>  <SCORE.SYSTEM.DIHEDRAL>
4.56591

>  <SCORE.SYSTEM.POLAR>
-3.04935

>  <SCORE.SYSTEM.SOLV>
0.0254827

>  <SCORE.SYSTEM.VDW>
-5.40254

>  <SCORE.SYSTEM.norm>
-2.33943

>  <SCORE.heavy>
9

>  <SCORE.norm>
-4.25783

$$$$
P23868837
 OpenBabel12072022113D
libRbt.so/2013.1/901 2013/11/27
 10 10  0  0  0  0  0  0  0  0999 V2000
  -28.9370   14.5332  -16.2777 C   0  0  0  0  0  0  0  0  0  0  0  0
  -28.4874   15.9786  -16.1107 C   0  0  0  0  0  0  0  0  0  0  0  0
  -29.0852   16.7762  -17.1421 O   0  0  0  0  0  0  0  0  0  0  0  0
  -29.4257   18.0024  -16.4967 C   0  0  0  0  0  0  0  0  0  0  0  0
  -29.7771   17.5791  -15.0922 C   0  0  2  0  0  0  0  0  0  0  0  0
  -28.9060   16.4648  -14.8249 O   0  0  0  0  0  0  0  0  0  0  0  0
  -31.2288   17.1140  -14.9606 C   0  0  0  0  0  0  0  0  0  0  0  0
  -32.0810   17.9987  -15.6890 O   0  0  0  0  0  0  0  0  0  0  0  0
  -26.9673   16.0863  -16.1985 C   0  0  0  0  0  0  0  0  0  0  0  0
  -32.9423   17.5420  -15.7542 H   0  0  0  0  0  0  0  0  0  0  0  0
  1  2  1  0  0  0  0
  2  3  1  0  0  0  0
  2  6  1  0  0  0  0
  2  9  1  0  0  0  0
  3  4  1  0  0  0  0
  4  5  1  0  0  0  0
  5  6  1  0  0  0  0
  5  7  1  6  0  0  0
  7  8  1  0  0  0  0
  8 10  1  0  0  0  0
M  END
>  <CHROM.0>
-59.52280652,175.87402373,-67.40790871,-43.84059874,-56.55878000,-62.60690171
-67.52517018,-57.55003703,-168.81773450

>  <CHROM.1>
-42.70867835,166.50348122,-29.47530533,16.73128657,-15.87369208,0.41687508
-0.37216883,2.80904148

>  <Name>
P23868837

>  <RI>
0

>  <Rbt.Current_Directory>
/home/fstefaniak/projects/zuza/docking/adenine/4TZX

>  <Rbt.Executable>
rbdock ($Id: //depot/dev/client3/rdock/2013.1/src/exe/rbdock.cxx#4 $)

>  <Rbt.Library>
libRbt.so (2013.1, Build901 2013/11/27)

>  <Rbt.Parameter_File>
/home/fstefaniak/progs/rDock//data/scripts/dock_solv.prm

>  <Rbt.Receptor>
4tzx.prm

>  <SCORE>
-38.1841

>  <SCORE.INTER>
-18.5346

>  <SCORE.INTER.CONST>
1

>  <SCORE.INTER.POLAR>
-3.05061

>  <SCORE.INTER.ROT>
1

>  <SCORE.INTER.SOLV>
8.70467

>  <SCORE.INTER.VDW>
-9.35593

>  <SCORE.INTER.norm>
-2.0594

>  <SCORE.INTRA>
1.25928

>  <SCORE.INTRA.DIHEDRAL>
1.04543

>  <SCORE.INTRA.DIHEDRAL.0>
0.836658

>  <SCORE.INTRA.POLAR>
0.0803713

>  <SCORE.INTRA.POLAR.0>
-0.0803713

>  <SCORE.INTRA.REPUL>
0

>  <SCORE.INTRA.REPUL.0>
0

>  <SCORE.INTRA.SOLV>
0.113009

>  <SCORE.INTRA.SOLV.lig_0>
-8.26396

>  <SCORE.INTRA.VDW>
0.406798

>  <SCORE.INTRA.VDW.0>
-0.14052

>  <SCORE.INTRA.norm>
0.13992

>  <SCORE.RESTR>
0

>  <SCORE.RESTR.CAVITY>
0

>  <SCORE.RESTR.norm>
0

>  <SCORE.SYSTEM>
-20.9087

>  <SCORE.SYSTEM.CONST>
0

>  <SCORE.SYSTEM.DIHEDRAL>
4.55163

>  <SCORE.SYSTEM.POLAR>
-3.04127

>  <SCORE.SYSTEM.SOLV>
0.164538

>  <SCORE.SYSTEM.VDW>
-5.37364

>  <SCORE.SYSTEM.norm>
-2.32319

>  <SCORE.heavy>
9

>  <SCORE.norm>
-4.24267

$$$$
P23868837
 OpenBabel12072022113D
libRbt.so/2013.1/901 2013/11/27
 10 10  0  0  0  0  0  0  0  0999 V2000
  -27.3527   16.2783  -16.1800 C   0  0  0  0  0  0  0  0  0  0  0  0
  -28.7982   15.7994  -16.1761 C   0  0  0  0  0  0  0  0  0  0  0  0
  -29.4348   16.2444  -14.9703 O   0  0  0  0  0  0  0  0  0  0  0  0
  -30.7528   16.6132  -15.3743 C   0  0  0  0  0  0  0  0  0  0  0  0
  -30.5608   17.1402  -16.7745 C   0  0  2  0  0  0  0  0  0  0  0  0
  -29.4870   16.3467  -17.3123 O   0  0  0  0  0  0  0  0  0  0  0  0
  -30.1475   18.6132  -16.8003 C   0  0  0  0  0  0  0  0  0  0  0  0
  -31.2506   19.4253  -16.3965 O   0  0  0  0  0  0  0  0  0  0  0  0
  -28.8642   14.2765  -16.2563 C   0  0  0  0  0  0  0  0  0  0  0  0
  -30.9932   20.3441  -16.6066 H   0  0  0  0  0  0  0  0  0  0  0  0
  1  2  1  0  0  0  0
  2  3  1  0  0  0  0
  2  6  1  0  0  0  0
  2  9  1  0  0  0  0
  3  4  1  0  0  0  0
  4  5  1  0  0  0  0
  5  6  1  0  0  0  0
  5  7  1  1  0  0  0
  7  8  1  0  0  0  0
  8 10  1  0  0  0  0
M  END
>  <CHROM.0>
-60.82509497,-179.65341527,-67.29377715,-42.97374578,-62.85128573,60.60349118
-68.92607929,-61.99533823,-168.70345850

>  <CHROM.1>
-70.43265420,-168.67057857,-29.63964569,16.79148767,-16.24727808,-0.92155558
0.40969207,-0.39819630

>  <Name>
P23868837

>  <RI>
0

>  <Rbt.Current_Directory>
/home/fstefaniak/projects/zuza/docking/adenine/4TZX

>  <Rbt.Executable>
rbdock ($Id: //depot/dev/client3/rdock/2013.1/src/exe/rbdock.cxx#4 $)

>  <Rbt.Library>
libRbt.so (2013.1, Build901 2013/11/27)

>  <Rbt.Parameter_File>
/home/fstefaniak/progs/rDock//data/scripts/dock_solv.prm

>  <Rbt.Receptor>
4tzx.prm

>  <SCORE>
-37.2349

>  <SCORE.INTER>
-17.4996

>  <SCORE.INTER.CONST>
1

>  <SCORE.INTER.POLAR>
-2.67792

>  <SCORE.INTER.ROT>
1

>  <SCORE.INTER.SOLV>
9.15035

>  <SCORE.INTER.VDW>
-10.0568

>  <SCORE.INTER.norm>
-1.9444

>  <SCORE.INTRA>
0.219125

>  <SCORE.INTRA.DIHEDRAL>
0.222654

>  <SCORE.INTRA.DIHEDRAL.0>
0.836658

>  <SCORE.INTRA.POLAR>
0.0803713

>  <SCORE.INTRA.POLAR.0>
-0.0803713

>  <SCORE.INTRA.REPUL>
0

>  <SCORE.INTRA.REPUL.0>
0

>  <SCORE.INTRA.SOLV>
-0.134514

>  <SCORE.INTRA.SOLV.lig_0>
-8.26396

>  <SCORE.INTRA.VDW>
-0.0982074

>  <SCORE.INTRA.VDW.0>
-0.14052

>  <SCORE.INTRA.norm>
0.0243472

>  <SCORE.RESTR>
0

>  <SCORE.RESTR.CAVITY>
0

>  <SCORE.RESTR.norm>
0

>  <SCORE.SYSTEM>
-19.9544

>  <SCORE.SYSTEM.CONST>
0

>  <SCORE.SYSTEM.DIHEDRAL>
4.64397

>  <SCORE.SYSTEM.POLAR>
-3.04419

>  <SCORE.SYSTEM.SOLV>
0.0076527

>  <SCORE.SYSTEM.VDW>
-4.70616

>  <SCORE.SYSTEM.norm>
-2.21716

>  <SCORE.heavy>
9

>  <SCORE.norm>
-4.13721

$$$$
P23886423
 OpenBabel12072022113D
libRbt.so/2013.1/901 2013/11/27
 14 14  0  0  0  0  0  0  0  0999 V2000
  -29.6226   18.1347  -16.6169 C   0  0  0  0  0  0  0  0  0  0  0  0
  -30.8804   18.4185  -15.7893 C   0  0  2  0  0  0  0  0  0  0  0  0
  -30.9436   17.2883  -14.7433 C   0  0  1  0  0  0  0  0  0  0  0  0
  -30.7286   15.9713  -15.4930 C   0  0  0  0  0  0  0  0  0  0  0  0
  -29.6105   16.3396  -16.8868 S   0  0  0  0  0  0  0  0  0  0  0  0
  -29.9254   17.4682  -13.7520 O   0  0  0  0  0  0  0  0  0  0  0  0
  -32.0879   18.4811  -16.6145 N   0  0  0  0  0  0  0  0  0  0  0  0
  -32.0317   18.9555  -17.8899 C   0  0  0  0  0  0  0  0  0  0  0  0
  -31.0878   19.5535  -18.3811 O   0  0  0  0  0  0  0  0  0  0  0  0
  -33.1704   18.7054  -18.5798 N   0  0  0  0  0  0  0  0  0  0  0  0
  -29.9927   18.3908  -13.4451 H   0  0  0  0  0  0  0  0  0  0  0  0
  -32.8002   17.7805  -16.4590 H   0  0  0  0  0  0  0  0  0  0  0  0
  -33.4493   19.4050  -19.2532 H   0  0  0  0  0  0  0  0  0  0  0  0
  -33.2280   17.7529  -18.9205 H   0  0  0  0  0  0  0  0  0  0  0  0
  1  2  1  0  0  0  0
  1  5  1  0  0  0  0
  2  7  1  6  0  0  0
  2  3  1  0  0  0  0
  3  4  1  0  0  0  0
  3  6  1  1  0  0  0
  4  5  1  0  0  0  0
  6 11  1  0  0  0  0
  7  8  1  0  0  0  0
  7 12  1  0  0  0  0
  8  9  2  0  0  0  0
  8 10  1  0  0  0  0
 10 13  1  0  0  0  0
 10 14  1  0  0  0  0
M  END
>  <CHROM.0>
-58.47006072,59.28854741,-72.62041094,-42.44161387,-54.16466698,-55.66721784
-169.89719468,-57.64636299,-167.77535094

>  <CHROM.1>
-32.84618803,49.93041311,-12.56440463,145.80683180,-30.86308101,17.76677447
-16.52123261,-0.78481972,0.78758984,-1.58659458

>  <Name>
P23886423

>  <RI>
0

>  <Rbt.Current_Directory>
/home/fstefaniak/projects/zuza/docking/adenine/4TZX

>  <Rbt.Executable>
rbdock ($Id: //depot/dev/client3/rdock/2013.1/src/exe/rbdock.cxx#4 $)

>  <Rbt.Library>
libRbt.so (2013.1, Build901 2013/11/27)

>  <Rbt.Parameter_File>
/home/fstefaniak/progs/rDock//data/scripts/dock_solv.prm

>  <Rbt.Receptor>
4tzx.prm

>  <SCORE>
-55.4233

>  <SCORE.INTER>
-38.0427

>  <SCORE.INTER.CONST>
1

>  <SCORE.INTER.POLAR>
-6.4028

>  <SCORE.INTER.ROT>
3

>  <SCORE.INTER.SOLV>
15.0938

>  <SCORE.INTER.VDW>
-14.6504

>  <SCORE.INTER.norm>
-3.80427

>  <SCORE.INTRA>
2.13419

>  <SCORE.INTRA.DIHEDRAL>
0.295593

>  <SCORE.INTRA.DIHEDRAL.0>
2.85762

>  <SCORE.INTRA.POLAR>
0

>  <SCORE.INTRA.POLAR.0>
0

>  <SCORE.INTRA.REPUL>
0

>  <SCORE.INTRA.REPUL.0>
0

>  <SCORE.INTRA.SOLV>
0.218726

>  <SCORE.INTRA.SOLV.lig_0>
-18.7476

>  <SCORE.INTRA.VDW>
1.87703

>  <SCORE.INTRA.VDW.0>
-0.809344

>  <SCORE.INTRA.norm>
0.213419

>  <SCORE.RESTR>
0

>  <SCORE.RESTR.CAVITY>
0

>  <SCORE.RESTR.norm>
0

>  <SCORE.SYSTEM>
-19.5148

>  <SCORE.SYSTEM.CONST>
0

>  <SCORE.SYSTEM.DIHEDRAL>
5.5895

>  <SCORE.SYSTEM.POLAR>
-3.07665

>  <SCORE.SYSTEM.SOLV>
0.243357

>  <SCORE.SYSTEM.VDW>
-4.69865

>  <SCORE.SYSTEM.norm>
-1.95148

>  <SCORE.heavy>
10

>  <SCORE.norm>
-5.54233

$$$$
P23886423
 OpenBabel12072022113D
libRbt.so/2013.1/901 2013/11/27
 14 14  0  0  0  0  0  0  0  0999 V2000
  -29.6167   18.1044  -16.6303 C   0  0  0  0  0  0  0  0  0  0  0  0
  -30.8686   18.3997  -15.7979 C   0  0  2  0  0  0  0  0  0  0  0  0
  -30.9294   17.2792  -14.7415 C   0  0  1  0  0  0  0  0  0  0  0  0
  -30.7231   15.9548  -15.4806 C   0  0  0  0  0  0  0  0  0  0  0  0
  -29.6121   16.3070  -16.8842 S   0  0  0  0  0  0  0  0  0  0  0  0
  -29.9047   17.4645  -13.7578 O   0  0  0  0  0  0  0  0  0  0  0  0
  -32.0808   18.4591  -16.6166 N   0  0  0  0  0  0  0  0  0  0  0  0
  -32.0387   18.9619  -17.8815 C   0  0  0  0  0  0  0  0  0  0  0  0
  -31.1082   19.5882  -18.3630 O   0  0  0  0  0  0  0  0  0  0  0  0
  -33.1752   18.7053  -18.5726 N   0  0  0  0  0  0  0  0  0  0  0  0
  -29.9614   18.3924  -13.4654 H   0  0  0  0  0  0  0  0  0  0  0  0
  -32.7800   17.7428  -16.4734 H   0  0  0  0  0  0  0  0  0  0  0  0
  -33.4459   19.3932  -19.2613 H   0  0  0  0  0  0  0  0  0  0  0  0
  -33.2370   17.7466  -18.8945 H   0  0  0  0  0  0  0  0  0  0  0  0
  1  2  1  0  0  0  0
  1  5  1  0  0  0  0
  2  7  1  6  0  0  0
  2  3  1  0  0  0  0
  3  4  1  0  0  0  0
  3  6  1  1  0  0  0
  4  5  1  0  0  0  0
  6 11  1  0  0  0  0
  7  8  1  0  0  0  0
  7 12  1  0  0  0  0
  8  9  2  0  0  0  0
  8 10  1  0  0  0  0
 10 13  1  0  0  0  0
 10 14  1  0  0  0  0
M  END
>  <CHROM.0>
-54.36037204,53.77974876,-64.08456758,-42.66522323,58.93119004,-62.85234725
-65.94357566,-58.93758145,-169.03064736

>  <CHROM.1>
-34.97396888,49.37489685,-12.64898000,148.64842987,-30.86030827,17.75531723
-16.51919332,-0.75857311,0.80603685,-1.60880325

>  <Name>
P23886423

>  <RI>
0

>  <Rbt.Current_Directory>
/home/fstefaniak/projects/zuza/docking/adenine/4TZX

>  <Rbt.Executable>
rbdock ($Id: //depot/dev/client3/rdock/2013.1/src/exe/rbdock.cxx#4 $)

>  <Rbt.Library>
libRbt.so (2013.1, Build901 2013/11/27)

>  <Rbt.Parameter_File>
/home/fstefaniak/progs/rDock//data/scripts/dock_solv.prm

>  <Rbt.Receptor>
4tzx.prm

>  <SCORE>
-55.184

>  <SCORE.INTER>
-37.6042

>  <SCORE.INTER.CONST>
1

>  <SCORE.INTER.POLAR>
-6.36778

>  <SCORE.INTER.ROT>
3

>  <SCORE.INTER.SOLV>
15.1259

>  <SCORE.INTER.VDW>
-14.4855

>  <SCORE.INTER.norm>
-3.76042

>  <SCORE.INTRA>
1.89047

>  <SCORE.INTRA.DIHEDRAL>
0.266269

>  <SCORE.INTRA.DIHEDRAL.0>
2.85762

>  <SCORE.INTRA.POLAR>
0

>  <SCORE.INTRA.POLAR.0>
0

>  <SCORE.INTRA.REPUL>
0

>  <SCORE.INTRA.REPUL.0>
0

>  <SCORE.INTRA.SOLV>
0.197612

>  <SCORE.INTRA.SOLV.lig_0>
-18.7476

>  <SCORE.INTRA.VDW>
1.65853

>  <SCORE.INTRA.VDW.0>
-0.809344

>  <SCORE.INTRA.norm>
0.189047

>  <SCORE.RESTR>
0

>  <SCORE.RESTR.CAVITY>
0

>  <SCORE.RESTR.norm>
0

>  <SCORE.SYSTEM>
-19.4703

>  <SCORE.SYSTEM.CONST>
0

>  <SCORE.SYSTEM.DIHEDRAL>
4.61306

>  <SCORE.SYSTEM.POLAR>
-3.11753

>  <SCORE.SYSTEM.SOLV>
0.0682222

>  <SCORE.SYSTEM.VDW>
-4.14886

>  <SCORE.SYSTEM.norm>
-1.94703

>  <SCORE.heavy>
10

>  <SCORE.norm>
-5.5184

$$$$
P23886423
 OpenBabel12072022113D
libRbt.so/2013.1/901 2013/11/27
 14 14  0  0  0  0  0  0  0  0999 V2000
  -29.6437   18.2338  -16.5942 C   0  0  0  0  0  0  0  0  0  0  0  0
  -30.9207   18.4449  -15.7742 C   0  0  2  0  0  0  0  0  0  0  0  0
  -30.9501   17.2850  -14.7597 C   0  0  1  0  0  0  0  0  0  0  0  0
  -30.6747   15.9985  -15.5419 C   0  0  0  0  0  0  0  0  0  0  0  0
  -29.5572   16.4486  -16.9120 S   0  0  0  0  0  0  0  0  0  0  0  0
  -29.9506   17.4779  -13.7519 O   0  0  0  0  0  0  0  0  0  0  0  0
  -32.1207   18.4823  -16.6117 N   0  0  0  0  0  0  0  0  0  0  0  0
  -32.0500   18.9020  -17.9054 C   0  0  0  0  0  0  0  0  0  0  0  0
  -31.0915   19.4580  -18.4172 O   0  0  0  0  0  0  0  0  0  0  0  0
  -33.1919   18.6487  -18.5890 N   0  0  0  0  0  0  0  0  0  0  0  0
  -30.0213   18.4052  -13.4608 H   0  0  0  0  0  0  0  0  0  0  0  0
  -32.8401   17.7945  -16.4330 H   0  0  0  0  0  0  0  0  0  0  0  0
  -33.5003   19.3676  -19.2282 H   0  0  0  0  0  0  0  0  0  0  0  0
  -33.2282   17.7100  -18.9686 H   0  0  0  0  0  0  0  0  0  0  0  0
  1  2  1  0  0  0  0
  1  5  1  0  0  0  0
  2  7  1  6  0  0  0
  2  3  1  0  0  0  0
  3  4  1  0  0  0  0
  3  6  1  1  0  0  0
  4  5  1  0  0  0  0
  6 11  1  0  0  0  0
  7  8  1  0  0  0  0
  7 12  1  0  0  0  0
  8  9  2  0  0  0  0
  8 10  1  0  0  0  0
 10 13  1  0  0  0  0
 10 14  1  0  0  0  0
M  END
>  <CHROM.0>
-60.39723070,62.09174286,-51.01590888,-42.01118321,-53.12978583,-55.19401130
-62.19409841,-55.74998055,-168.61207727

>  <CHROM.1>
-28.02065487,46.46511238,-11.71278507,140.12778374,-30.86309941,17.78351862
-16.53392893,-0.83306520,0.71160897,-1.53816176

>  <Name>
P23886423

>  <RI>
0

>  <Rbt.Current_Directory>
/home/fstefaniak/projects/zuza/docking/adenine/4TZX

>  <Rbt.Executable>
rbdock ($Id: //depot/dev/client3/rdock/2013.1/src/exe/rbdock.cxx#4 $)

>  <Rbt.Library>
libRbt.so (2013.1, Build901 2013/11/27)

>  <Rbt.Parameter_File>
/home/fstefaniak/progs/rDock//data/scripts/dock_solv.prm

>  <Rbt.Receptor>
4tzx.prm

>  <SCORE>
-55.1801

>  <SCORE.INTER>
-38.6009

>  <SCORE.INTER.CONST>
1

>  <SCORE.INTER.POLAR>
-6.45622

>  <SCORE.INTER.ROT>
3

>  <SCORE.INTER.SOLV>
14.9546

>  <SCORE.INTER.VDW>
-14.7981

>  <SCORE.INTER.norm>
-3.86009

>  <SCORE.INTRA>
3.12048

>  <SCORE.INTRA.DIHEDRAL>
0.837148

>  <SCORE.INTRA.DIHEDRAL.0>
2.85762

>  <SCORE.INTRA.POLAR>
0

>  <SCORE.INTRA.POLAR.0>
0

>  <SCORE.INTRA.REPUL>
0

>  <SCORE.INTRA.REPUL.0>
0

>  <SCORE.INTRA.SOLV>
0.279241

>  <SCORE.INTRA.SOLV.lig_0>
-18.7476

>  <SCORE.INTRA.VDW>
2.56229

>  <SCORE.INTRA.VDW.0>
-0.809344

>  <SCORE.INTRA.norm>
0.312048

>  <SCORE.RESTR>
0

>  <SCORE.RESTR.CAVITY>
0

>  <SCORE.RESTR.norm>
0

>  <SCORE.SYSTEM>
-19.6996

>  <SCORE.SYSTEM.CONST>
0

>  <SCORE.SYSTEM.DIHEDRAL>
4.93983

>  <SCORE.SYSTEM.POLAR>
-3.1679

>  <SCORE.SYSTEM.SOLV>
0.29423

>  <SCORE.SYSTEM.VDW>
-4.3181

>  <SCORE.SYSTEM.norm>
-1.96996

>  <SCORE.heavy>
10

>  <SCORE.norm>
-5.51801

$$$$
P23925466
 OpenBabel12072022113D
libRbt.so/2013.1/901 2013/11/27
 11 10  0  0  0  0  0  0  0  0999 V2000
  -29.6038   17.1536  -16.1679 C   0  0  0  0  0  0  0  0  0  0  0  0
  -30.8898   17.4950  -15.4323 C   0  0  0  0  0  0  0  0  0  0  0  0
  -31.1496   17.1385  -14.2814 O   0  0  0  0  0  0  0  0  0  0  0  0
  -31.8493   18.2129  -16.1144 N   0  0  0  0  0  0  0  0  0  0  0  0
  -31.6337   18.9788  -17.2264 C   0  0  0  0  0  0  0  0  0  0  0  0
  -30.7140   19.7648  -17.3948 O   0  0  0  0  0  0  0  0  0  0  0  0
  -32.5941   18.8139  -18.1762 N   0  0  0  0  0  0  0  0  0  0  0  0
  -29.2980   15.4015  -16.1218 Cl  0  0  0  0  0  0  0  0  0  0  0  0
  -32.7529   17.7670  -16.0658 H   0  0  0  0  0  0  0  0  0  0  0  0
  -32.7949   19.5803  -18.8037 H   0  0  0  0  0  0  0  0  0  0  0  0
  -32.5769   17.9014  -18.6194 H   0  0  0  0  0  0  0  0  0  0  0  0
  1  2  1  0  0  0  0
  1  8  1  0  0  0  0
  2  3  2  0  0  0  0
  2  4  1  0  0  0  0
  4  5  1  0  0  0  0
  4  9  1  0  0  0  0
  5  6  2  0  0  0  0
  5  7  1  0  0  0  0
  7 10  1  0  0  0  0
  7 11  1  0  0  0  0
M  END
>  <CHROM.0>
-57.19481018,52.13566487,-63.20744164,-40.77862607,-56.73583192,-62.13026176
-66.93645828,-59.39256722,-169.83689202

>  <CHROM.1>
52.20934708,-20.30052088,-44.58883453,151.74158685,-30.73318329,17.50043280
-16.34437196,-0.72387291,0.80524937,-1.15412683

>  <Name>
P23925466

>  <RI>
0

>  <Rbt.Current_Directory>
/home/fstefaniak/projects/zuza/docking/adenine/4TZX

>  <Rbt.Executable>
rbdock ($Id: //depot/dev/client3/rdock/2013.1/src/exe/rbdock.cxx#4 $)

>  <Rbt.Library>
libRbt.so (2013.1, Build901 2013/11/27)

>  <Rbt.Parameter_File>
/home/fstefaniak/progs/rDock//data/scripts/dock_solv.prm

>  <Rbt.Receptor>
4tzx.prm

>  <SCORE>
-57.7761

>  <SCORE.INTER>
-36.8396

>  <SCORE.INTER.CONST>
1

>  <SCORE.INTER.POLAR>
-5.88555

>  <SCORE.INTER.ROT>
4

>  <SCORE.INTER.SOLV>
12.7391

>  <SCORE.INTER.VDW>
-15.4543

>  <SCORE.INTER.norm>
-4.60495

>  <SCORE.INTRA>
-0.757074

>  <SCORE.INTRA.DIHEDRAL>
0.0715901

>  <SCORE.INTRA.DIHEDRAL.0>
2.71621

>  <SCORE.INTRA.POLAR>
0

>  <SCORE.INTRA.POLAR.0>
0

>  <SCORE.INTRA.REPUL>
0

>  <SCORE.INTRA.REPUL.0>
0

>  <SCORE.INTRA.SOLV>
0.0631109

>  <SCORE.INTRA.SOLV.lig_0>
-17.6601

>  <SCORE.INTRA.VDW>
-0.824424

>  <SCORE.INTRA.VDW.0>
0.336248

>  <SCORE.INTRA.norm>
-0.0946342

>  <SCORE.RESTR>
0

>  <SCORE.RESTR.CAVITY>
0

>  <SCORE.RESTR.norm>
0

>  <SCORE.SYSTEM>
-20.1794

>  <SCORE.SYSTEM.CONST>
0

>  <SCORE.SYSTEM.DIHEDRAL>
4.87487

>  <SCORE.SYSTEM.POLAR>
-3.11109

>  <SCORE.SYSTEM.SOLV>
0.292775

>  <SCORE.SYSTEM.VDW>
-4.80517

>  <SCORE.SYSTEM.norm>
-2.52242

>  <SCORE.heavy>
8

>  <SCORE.norm>
-7.22201

$$$$
P23925466
 OpenBabel12072022113D
libRbt.so/2013.1/901 2013/11/27
 11 10  0  0  0  0  0  0  0  0999 V2000
  -29.6008   17.1544  -16.2373 C   0  0  0  0  0  0  0  0  0  0  0  0
  -30.8884   17.4685  -15.4924 C   0  0  0  0  0  0  0  0  0  0  0  0
  -31.1528   17.0658  -14.3580 O   0  0  0  0  0  0  0  0  0  0  0  0
  -31.8439   18.2162  -16.1475 N   0  0  0  0  0  0  0  0  0  0  0  0
  -31.6275   19.0071  -17.2418 C   0  0  0  0  0  0  0  0  0  0  0  0
  -30.7456   19.8431  -17.3657 O   0  0  0  0  0  0  0  0  0  0  0  0
  -32.5409   18.8040  -18.2298 N   0  0  0  0  0  0  0  0  0  0  0  0
  -29.0119   15.5284  -15.8190 Cl  0  0  0  0  0  0  0  0  0  0  0  0
  -32.7531   17.7814  -16.1021 H   0  0  0  0  0  0  0  0  0  0  0  0
  -32.7653   19.5695  -18.8503 H   0  0  0  0  0  0  0  0  0  0  0  0
  -32.4519   17.9035  -18.6886 H   0  0  0  0  0  0  0  0  0  0  0  0
  1  2  1  0  0  0  0
  1  8  1  0  0  0  0
  2  3  2  0  0  0  0
  2  4  1  0  0  0  0
  4  5  1  0  0  0  0
  4  9  1  0  0  0  0
  5  6  2  0  0  0  0
  5  7  1  0  0  0  0
  7 10  1  0  0  0  0
  7 11  1  0  0  0  0
M  END
>  <CHROM.0>
-59.36399506,58.31414618,-62.39941125,-43.33646951,-58.26339425,-60.32971098
-66.30225023,-61.65344589,-168.48008167

>  <CHROM.1>
33.41568058,-18.99859656,-49.33815517,151.14250188,-30.65488059,17.53364189
-16.29511592,-0.82367577,0.63336451,-1.03245285

>  <Name>
P23925466

>  <RI>
0

>  <Rbt.Current_Directory>
/home/fstefaniak/projects/zuza/docking/adenine/4TZX

>  <Rbt.Executable>
rbdock ($Id: //depot/dev/client3/rdock/2013.1/src/exe/rbdock.cxx#4 $)

>  <Rbt.Library>
libRbt.so (2013.1, Build901 2013/11/27)

>  <Rbt.Parameter_File>
/home/fstefaniak/progs/rDock//data/scripts/dock_solv.prm

>  <Rbt.Receptor>
4tzx.prm

>  <SCORE>
-57.4698

>  <SCORE.INTER>
-36.4984

>  <SCORE.INTER.CONST>
1

>  <SCORE.INTER.POLAR>
-5.88042

>  <SCORE.INTER.ROT>
4

>  <SCORE.INTER.SOLV>
12.7158

>  <SCORE.INTER.VDW>
-15.2361

>  <SCORE.INTER.norm>
-4.5623

>  <SCORE.INTRA>
-0.677716

>  <SCORE.INTRA.DIHEDRAL>
0.0992086

>  <SCORE.INTRA.DIHEDRAL.0>
2.71621

>  <SCORE.INTRA.POLAR>
0

>  <SCORE.INTRA.POLAR.0>
0

>  <SCORE.INTRA.REPUL>
0

>  <SCORE.INTRA.REPUL.0>
0

>  <SCORE.INTRA.SOLV>
0.0412056

>  <SCORE.INTRA.SOLV.lig_0>
-17.6601

>  <SCORE.INTRA.VDW>
-0.747924

>  <SCORE.INTRA.VDW.0>
0.336248

>  <SCORE.INTRA.norm>
-0.0847146

>  <SCORE.RESTR>
0

>  <SCORE.RESTR.CAVITY>
0

>  <SCORE.RESTR.norm>
0

>  <SCORE.SYSTEM>
-20.2937

>  <SCORE.SYSTEM.CONST>
0

>  <SCORE.SYSTEM.DIHEDRAL>
4.20502

>  <SCORE.SYSTEM.POLAR>
-3.05409

>  <SCORE.SYSTEM.SOLV>
0.262051

>  <SCORE.SYSTEM.VDW>
-4.83786

>  <SCORE.SYSTEM.norm>
-2.53671

>  <SCORE.heavy>
8

>  <SCORE.norm>
-7.18373

$$$$
P23925466
 OpenBabel12072022113D
libRbt.so/2013.1/901 2013/11/27
 11 10  0  0  0  0  0  0  0  0999 V2000
  -30.3895   16.5283  -15.6613 C   0  0  0  0  0  0  0  0  0  0  0  0
  -31.1867   17.7764  -15.3175 C   0  0  0  0  0  0  0  0  0  0  0  0
  -31.1051   18.3822  -14.2472 O   0  0  0  0  0  0  0  0  0  0  0  0
  -32.0955   18.2350  -16.2475 N   0  0  0  0  0  0  0  0  0  0  0  0
  -31.7875   18.8300  -17.4395 C   0  0  0  0  0  0  0  0  0  0  0  0
  -30.7404   19.3953  -17.7152 O   0  0  0  0  0  0  0  0  0  0  0  0
  -32.8063   18.7692  -18.3395 N   0  0  0  0  0  0  0  0  0  0  0  0
  -29.3190   16.8279  -17.0505 Cl  0  0  0  0  0  0  0  0  0  0  0  0
  -32.9408   17.6844  -16.2455 H   0  0  0  0  0  0  0  0  0  0  0  0
  -32.9479   19.5481  -18.9678 H   0  0  0  0  0  0  0  0  0  0  0  0
  -32.9166   17.8570  -18.7696 H   0  0  0  0  0  0  0  0  0  0  0  0
  1  2  1  0  0  0  0
  1  8  1  0  0  0  0
  2  3  2  0  0  0  0
  2  4  1  0  0  0  0
  4  5  1  0  0  0  0
  4  9  1  0  0  0  0
  5  6  2  0  0  0  0
  5  7  1  0  0  0  0
  7 10  1  0  0  0  0
  7 11  1  0  0  0  0
M  END
>  <CHROM.0>
-59.09030682,-66.29286272,-68.42039989,-43.72699449,-62.19984482,-66.35474484
-65.75187865,-176.28922143,-169.29873774

>  <CHROM.1>
-117.42087663,-71.27831760,-22.60995562,144.64003027,-30.90893531,17.91716955
-16.60971731,0.59692042,-0.62969180,1.72658629

>  <Name>
P23925466

>  <RI>
0

>  <Rbt.Current_Directory>
/home/fstefaniak/projects/zuza/docking/adenine/4TZX

>  <Rbt.Executable>
rbdock ($Id: //depot/dev/client3/rdock/2013.1/src/exe/rbdock.cxx#4 $)

>  <Rbt.Library>
libRbt.so (2013.1, Build901 2013/11/27)

>  <Rbt.Parameter_File>
/home/fstefaniak/progs/rDock//data/scripts/dock_solv.prm

>  <Rbt.Receptor>
4tzx.prm

>  <SCORE>
-53.7227

>  <SCORE.INTER>
-31.2503

>  <SCORE.INTER.CONST>
1

>  <SCORE.INTER.POLAR>
-5.0771

>  <SCORE.INTER.ROT>
4

>  <SCORE.INTER.SOLV>
12.6689

>  <SCORE.INTER.VDW>
-14.3995

>  <SCORE.INTER.norm>
-3.90629

>  <SCORE.INTRA>
-1.40581

>  <SCORE.INTRA.DIHEDRAL>
0.0726364

>  <SCORE.INTRA.DIHEDRAL.0>
2.71621

>  <SCORE.INTRA.POLAR>
0

>  <SCORE.INTRA.POLAR.0>
0

>  <SCORE.INTRA.REPUL>
0

>  <SCORE.INTRA.REPUL.0>
0

>  <SCORE.INTRA.SOLV>
0.431662

>  <SCORE.INTRA.SOLV.lig_0>
-17.6601

>  <SCORE.INTRA.VDW>
-1.65796

>  <SCORE.INTRA.VDW.0>
0.336248

>  <SCORE.INTRA.norm>
-0.175726

>  <SCORE.RESTR>
0

>  <SCORE.RESTR.CAVITY>
0

>  <SCORE.RESTR.norm>
0

>  <SCORE.SYSTEM>
-21.0666

>  <SCORE.SYSTEM.CONST>
0

>  <SCORE.SYSTEM.DIHEDRAL>
4.75364

>  <SCORE.SYSTEM.POLAR>
-3.02609

>  <SCORE.SYSTEM.SOLV>
0.0335654

>  <SCORE.SYSTEM.VDW>
-5.55315

>  <SCORE.SYSTEM.norm>
-2.63332

>  <SCORE.heavy>
8

>  <SCORE.norm>
-6.71533

$$$$
P23933286
 OpenBabel12072022113D
libRbt.so/2013.1/901 2013/11/27
 15 15  0  0  0  0  0  0  0  0999 V2000
  -26.5293   13.7204  -16.8988 C   0  0  0  0  0  0  0  0  0  0  0  0
  -26.6581   14.9311  -16.0925 N   0  0  0  0  0  0  0  0  0  0  0  0
  -25.4008   15.6722  -16.0356 C   0  0  0  0  0  0  0  0  0  0  0  0
  -27.6970   15.7458  -16.5745 N   0  0  0  0  0  0  0  0  0  0  0  0
  -28.7870   16.0514  -15.7761 C   0  0  0  0  0  0  0  0  0  0  0  0
  -28.9351   15.6580  -14.6209 O   0  0  0  0  0  0  0  0  0  0  0  0
  -29.8370   16.9250  -16.3977 C   0  0  0  0  0  0  0  0  0  0  0  0
  -29.5895   17.3909  -17.7008 C   0  0  0  0  0  0  0  0  0  0  0  0
  -30.5100   18.2094  -18.3589 C   0  0  0  0  0  0  0  0  0  0  0  0
  -31.6930   18.5746  -17.7231 C   0  0  0  0  0  0  0  0  0  0  0  0
  -31.9583   18.1232  -16.4302 C   0  0  0  0  0  0  0  0  0  0  0  0
  -31.0358   17.3027  -15.7702 C   0  0  0  0  0  0  0  0  0  0  0  0
  -31.3329   16.8791  -14.4989 O   0  0  0  0  0  0  0  0  0  0  0  0
  -27.6628   16.1207  -17.5221 H   0  0  0  0  0  0  0  0  0  0  0  0
  -32.0292   17.4550  -14.1347 H   0  0  0  0  0  0  0  0  0  0  0  0
  1  2  1  0  0  0  0
  2  3  1  0  0  0  0
  2  4  1  0  0  0  0
  4  5  1  0  0  0  0
  4 14  1  0  0  0  0
  5  6  2  0  0  0  0
  5  7  1  0  0  0  0
  7  8  2  0  0  0  0
  7 12  1  0  0  0  0
  8  9  1  0  0  0  0
  9 10  2  0  0  0  0
 10 11  1  0  0  0  0
 11 12  2  0  0  0  0
 12 13  1  0  0  0  0
 13 15  1  0  0  0  0
M  END
>  <CHROM.0>
-60.41990229,-62.47967773,-63.21314824,-43.55783419,-176.16993122,-59.31012104
-65.42274078,-56.98263802,-168.52558958

>  <CHROM.1>
118.91815320,-2.52958303,161.79747479,-29.15832986,16.48751286,-16.31728870
-0.28550353,0.48428213,-1.14701364

>  <Name>
P23933286

>  <RI>
0

>  <Rbt.Current_Directory>
/home/fstefaniak/projects/zuza/docking/adenine/4TZX

>  <Rbt.Executable>
rbdock ($Id: //depot/dev/client3/rdock/2013.1/src/exe/rbdock.cxx#4 $)

>  <Rbt.Library>
libRbt.so (2013.1, Build901 2013/11/27)

>  <Rbt.Parameter_File>
/home/fstefaniak/progs/rDock//data/scripts/dock_solv.prm

>  <Rbt.Receptor>
4tzx.prm

>  <SCORE>
-47.3824

>  <SCORE.INTER>
-29.206

>  <SCORE.INTER.CONST>
1

>  <SCORE.INTER.POLAR>
-2.72392

>  <SCORE.INTER.ROT>
2

>  <SCORE.INTER.SOLV>
13.7856

>  <SCORE.INTER.VDW>
-19.9195

>  <SCORE.INTER.norm>
-2.24661

>  <SCORE.INTRA>
3.07021

>  <SCORE.INTRA.DIHEDRAL>
0.493893

>  <SCORE.INTRA.DIHEDRAL.0>
0.479735

>  <SCORE.INTRA.POLAR>
0.714694

>  <SCORE.INTRA.POLAR.0>
-0.714694

>  <SCORE.INTRA.REPUL>
0

>  <SCORE.INTRA.REPUL.0>
0

>  <SCORE.INTRA.SOLV>
-0.711325

>  <SCORE.INTRA.SOLV.lig_0>
-17.5326

>  <SCORE.INTRA.VDW>
0.748967

>  <SCORE.INTRA.VDW.0>
0.162251

>  <SCORE.INTRA.norm>
0.23617

>  <SCORE.RESTR>
0

>  <SCORE.RESTR.CAVITY>
0

>  <SCORE.RESTR.norm>
0

>  <SCORE.SYSTEM>
-21.2467

>  <SCORE.SYSTEM.CONST>
0

>  <SCORE.SYSTEM.DIHEDRAL>
4.24212

>  <SCORE.SYSTEM.POLAR>
-3.04828

>  <SCORE.SYSTEM.SOLV>
0.013087

>  <SCORE.SYSTEM.VDW>
-5.42193

>  <SCORE.SYSTEM.norm>
-1.63436

>  <SCORE.heavy>
13

>  <SCORE.norm>
-3.6448

$$$$
P23933286
 OpenBabel12072022113D
libRbt.so/2013.1/901 2013/11/27
 15 15  0  0  0  0  0  0  0  0999 V2000
  -27.0582   13.2289  -16.5743 C   0  0  0  0  0  0  0  0  0  0  0  0
  -26.8570   14.5791  -16.0555 N   0  0  0  0  0  0  0  0  0  0  0  0
  -25.5178   15.0754  -16.3607 C   0  0  0  0  0  0  0  0  0  0  0  0
  -27.8391   15.4560  -16.5472 N   0  0  0  0  0  0  0  0  0  0  0  0
  -28.8607   15.9078  -15.7279 C   0  0  0  0  0  0  0  0  0  0  0  0
  -28.9919   15.5990  -14.5453 O   0  0  0  0  0  0  0  0  0  0  0  0
  -29.8547   16.8361  -16.3621 C   0  0  0  0  0  0  0  0  0  0  0  0
  -29.5844   17.2595  -17.6752 C   0  0  0  0  0  0  0  0  0  0  0  0
  -30.4531   18.1237  -18.3453 C   0  0  0  0  0  0  0  0  0  0  0  0
  -31.6061   18.5779  -17.7118 C   0  0  0  0  0  0  0  0  0  0  0  0
  -31.8932   18.1698  -16.4091 C   0  0  0  0  0  0  0  0  0  0  0  0
  -31.0227   17.3036  -15.7371 C   0  0  0  0  0  0  0  0  0  0  0  0
  -31.3399   16.9250  -14.4564 O   0  0  0  0  0  0  0  0  0  0  0  0
  -27.8136   15.7693  -17.5172 H   0  0  0  0  0  0  0  0  0  0  0  0
  -32.1063   17.4479  -14.1591 H   0  0  0  0  0  0  0  0  0  0  0  0
  1  2  1  0  0  0  0
  2  3  1  0  0  0  0
  2  4  1  0  0  0  0
  4  5  1  0  0  0  0
  4 14  1  0  0  0  0
  5  6  2  0  0  0  0
  5  7  1  0  0  0  0
  7  8  2  0  0  0  0
  7 12  1  0  0  0  0
  8  9  1  0  0  0  0
  9 10  2  0  0  0  0
 10 11  1  0  0  0  0
 11 12  2  0  0  0  0
 12 13  1  0  0  0  0
 13 15  1  0  0  0  0
M  END
>  <CHROM.0>
-61.69047588,-65.00006080,-66.31485313,-43.84734866,-60.24379557,-62.24695719
-68.73490118,-61.75375937,-169.01411202

>  <CHROM.1>
106.47589662,-6.05159469,171.94613741,-29.23542621,16.31614918,-16.28898980
-0.33635420,0.56481975,-1.11323785

>  <Name>
P23933286

>  <RI>
0

>  <Rbt.Current_Directory>
/home/fstefaniak/projects/zuza/docking/adenine/4TZX

>  <Rbt.Executable>
rbdock ($Id: //depot/dev/client3/rdock/2013.1/src/exe/rbdock.cxx#4 $)

>  <Rbt.Library>
libRbt.so (2013.1, Build901 2013/11/27)

>  <Rbt.Parameter_File>
/home/fstefaniak/progs/rDock//data/scripts/dock_solv.prm

>  <Rbt.Receptor>
4tzx.prm

>  <SCORE>
-47.1911

>  <SCORE.INTER>
-29.0155

>  <SCORE.INTER.CONST>
1

>  <SCORE.INTER.POLAR>
-2.74442

>  <SCORE.INTER.ROT>
2

>  <SCORE.INTER.SOLV>
13.526

>  <SCORE.INTER.VDW>
-19.6376

>  <SCORE.INTER.norm>
-2.23196

>  <SCORE.INTRA>
3.02804

>  <SCORE.INTRA.DIHEDRAL>
0.239134

>  <SCORE.INTRA.DIHEDRAL.0>
0.479735

>  <SCORE.INTRA.POLAR>
0.714694

>  <SCORE.INTRA.POLAR.0>
-0.714694

>  <SCORE.INTRA.REPUL>
0

>  <SCORE.INTRA.REPUL.0>
0

>  <SCORE.INTRA.SOLV>
-0.713784

>  <SCORE.INTRA.SOLV.lig_0>
-17.5326

>  <SCORE.INTRA.VDW>
0.835409

>  <SCORE.INTRA.VDW.0>
0.162251

>  <SCORE.INTRA.norm>
0.232926

>  <SCORE.RESTR>
0

>  <SCORE.RESTR.CAVITY>
0

>  <SCORE.RESTR.norm>
0

>  <SCORE.SYSTEM>
-21.2037

>  <SCORE.SYSTEM.CONST>
0

>  <SCORE.SYSTEM.DIHEDRAL>
4.52777

>  <SCORE.SYSTEM.POLAR>
-3.02339

>  <SCORE.SYSTEM.SOLV>
0.165655

>  <SCORE.SYSTEM.VDW>
-5.62231

>  <SCORE.SYSTEM.norm>
-1.63105

>  <SCORE.heavy>
13

>  <SCORE.norm>
-3.63009

$$$$
P23933286
 OpenBabel12072022113D
libRbt.so/2013.1/901 2013/11/27
 15 15  0  0  0  0  0  0  0  0999 V2000
  -26.5530   13.7239  -16.8687 C   0  0  0  0  0  0  0  0  0  0  0  0
  -26.6668   14.9499  -16.0834 N   0  0  0  0  0  0  0  0  0  0  0  0
  -25.4061   15.6869  -16.0565 C   0  0  0  0  0  0  0  0  0  0  0  0
  -27.7087   15.7596  -16.5672 N   0  0  0  0  0  0  0  0  0  0  0  0
  -28.7979   16.0663  -15.7680 C   0  0  0  0  0  0  0  0  0  0  0  0
  -28.9426   15.6780  -14.6106 O   0  0  0  0  0  0  0  0  0  0  0  0
  -29.8513   16.9342  -16.3916 C   0  0  0  0  0  0  0  0  0  0  0  0
  -29.5957   17.4166  -17.6871 C   0  0  0  0  0  0  0  0  0  0  0  0
  -30.5187   18.2314  -18.3464 C   0  0  0  0  0  0  0  0  0  0  0  0
  -31.7124   18.5763  -17.7193 C   0  0  0  0  0  0  0  0  0  0  0  0
  -31.9859   18.1083  -16.4340 C   0  0  0  0  0  0  0  0  0  0  0  0
  -31.0609   17.2916  -15.7729 C   0  0  0  0  0  0  0  0  0  0  0  0
  -31.3664   16.8513  -14.5093 O   0  0  0  0  0  0  0  0  0  0  0  0
  -27.6774   16.1301  -17.5166 H   0  0  0  0  0  0  0  0  0  0  0  0
  -32.0198   17.4590  -14.1184 H   0  0  0  0  0  0  0  0  0  0  0  0
  1  2  1  0  0  0  0
  2  3  1  0  0  0  0
  2  4  1  0  0  0  0
  4  5  1  0  0  0  0
  4 14  1  0  0  0  0
  5  6  2  0  0  0  0
  5  7  1  0  0  0  0
  7  8  2  0  0  0  0
  7 12  1  0  0  0  0
  8  9  1  0  0  0  0
  9 10  2  0  0  0  0
 10 11  1  0  0  0  0
 11 12  2  0  0  0  0
 12 13  1  0  0  0  0
 13 15  1  0  0  0  0
M  END
>  <CHROM.0>
-58.56142374,-64.65771202,-64.19878712,-42.27414276,-54.96881291,-61.28973401
-66.82896627,-59.29463575,-168.97052362

>  <CHROM.1>
117.84890023,-3.77185886,157.17993598,-29.17382473,16.49431032,-16.31246950
-0.29205443,0.47655837,-1.13236597

>  <Name>
P23933286

>  <RI>
0

>  <Rbt.Current_Directory>
/home/fstefaniak/projects/zuza/docking/adenine/4TZX

>  <Rbt.Executable>
rbdock ($Id: //depot/dev/client3/rdock/2013.1/src/exe/rbdock.cxx#4 $)

>  <Rbt.Library>
libRbt.so (2013.1, Build901 2013/11/27)

>  <Rbt.Parameter_File>
/home/fstefaniak/progs/rDock//data/scripts/dock_solv.prm

>  <Rbt.Receptor>
4tzx.prm

>  <SCORE>
-47.1695

>  <SCORE.INTER>
-29.2272

>  <SCORE.INTER.CONST>
1

>  <SCORE.INTER.POLAR>
-2.70616

>  <SCORE.INTER.ROT>
2

>  <SCORE.INTER.SOLV>
13.8337

>  <SCORE.INTER.VDW>
-20.0088

>  <SCORE.INTER.norm>
-2.24824

>  <SCORE.INTRA>
3.15075

>  <SCORE.INTRA.DIHEDRAL>
0.77833

>  <SCORE.INTRA.DIHEDRAL.0>
0.479735

>  <SCORE.INTRA.POLAR>
0.714694

>  <SCORE.INTRA.POLAR.0>
-0.714694

>  <SCORE.INTRA.REPUL>
0

>  <SCORE.INTRA.REPUL.0>
0

>  <SCORE.INTRA.SOLV>
-0.710198

>  <SCORE.INTRA.SOLV.lig_0>
-17.5326

>  <SCORE.INTRA.VDW>
0.68673

>  <SCORE.INTRA.VDW.0>
0.162251

>  <SCORE.INTRA.norm>
0.242366

>  <SCORE.RESTR>
0

>  <SCORE.RESTR.CAVITY>
0

>  <SCORE.RESTR.norm>
0

>  <SCORE.SYSTEM>
-21.0931

>  <SCORE.SYSTEM.CONST>
0

>  <SCORE.SYSTEM.DIHEDRAL>
4.59115

>  <SCORE.SYSTEM.POLAR>
-3.08088

>  <SCORE.SYSTEM.SOLV>
0.195526

>  <SCORE.SYSTEM.VDW>
-5.38801

>  <SCORE.SYSTEM.norm>
-1.62254

>  <SCORE.heavy>
13

>  <SCORE.norm>
-3.62842

$$$$
P23936416
 OpenBabel12072022113D
libRbt.so/2013.1/901 2013/11/27
 10 10  0  0  0  0  0  0  0  0999 V2000
  -31.5060   17.7928  -14.1163 C   0  0  0  0  0  0  0  0  0  0  0  0
  -30.4857   17.5326  -15.1400 N   0  3  2  0  0  0  0  0  0  0  0  0
  -29.5263   17.7118  -14.7360 H   0  0  0  0  0  0  0  0  0  0  0  0
  -30.4719   18.4081  -16.3580 C   0  0  0  0  0  0  0  0  0  0  0  0
  -29.8816   17.5404  -17.4663 C   0  0  0  0  0  0  0  0  0  0  0  0
  -29.4142   16.2584  -16.7990 C   0  0  2  0  0  0  0  0  0  0  0  0
  -30.3438   16.1072  -15.6195 C   0  0  0  0  0  0  0  0  0  0  0  0
  -28.0729   16.3568  -16.0756 C   0  0  0  0  0  0  0  0  0  0  0  0
  -28.0921   17.0118  -15.0085 O   0  0  0  0  0  0  0  0  0  0  0  0
  -27.1002   15.8605  -16.7241 O   0  5  0  0  0  0  0  0  0  0  0  0
  1  2  1  0  0  0  0
  2  3  1  1  0  0  0
  2  4  1  0  0  0  0
  2  7  1  0  0  0  0
  4  5  1  0  0  0  0
  5  6  1  0  0  0  0
  6  7  1  0  0  0  0
  6  8  1  1  0  0  0
  8  9  2  0  0  0  0
  8 10  1  0  0  0  0
M  CHG  2   2   1  10  -1
M  END
>  <CHROM.0>
-61.47761132,68.81483634,-67.90295782,-42.08103258,-176.73308159,-60.81601668
-66.87406015,-60.68237116,-169.35705392

>  <CHROM.1>
72.13911774,-29.46619333,16.99597613,-15.88884535,-2.80333722,0.46350429
-1.50452045

>  <Name>
P23936416

>  <RI>
0

>  <Rbt.Current_Directory>
/home/fstefaniak/projects/zuza/docking/adenine/4TZX

>  <Rbt.Executable>
rbdock ($Id: //depot/dev/client3/rdock/2013.1/src/exe/rbdock.cxx#4 $)

>  <Rbt.Library>
libRbt.so (2013.1, Build901 2013/11/27)

>  <Rbt.Parameter_File>
/home/fstefaniak/progs/rDock//data/scripts/dock_solv.prm

>  <Rbt.Receptor>
4tzx.prm

>  <SCORE>
-34.1701

>  <SCORE.INTER>
-15.1084

>  <SCORE.INTER.CONST>
1

>  <SCORE.INTER.POLAR>
-1.73293

>  <SCORE.INTER.ROT>
1

>  <SCORE.INTER.SOLV>
15.1409

>  <SCORE.INTER.VDW>
-13.6095

>  <SCORE.INTER.norm>
-1.67871

>  <SCORE.INTRA>
1.06907

>  <SCORE.INTRA.DIHEDRAL>
0.0432958

>  <SCORE.INTRA.DIHEDRAL.0>
0.91618

>  <SCORE.INTRA.POLAR>
-0.373995

>  <SCORE.INTRA.POLAR.0>
-0.178465

>  <SCORE.INTRA.REPUL>
0

>  <SCORE.INTRA.REPUL.0>
0

>  <SCORE.INTRA.SOLV>
0.0545754

>  <SCORE.INTRA.SOLV.lig_0>
-37.3311

>  <SCORE.INTRA.VDW>
2.29171

>  <SCORE.INTRA.VDW.0>
1.26299

>  <SCORE.INTRA.norm>
0.118785

>  <SCORE.RESTR>
0

>  <SCORE.RESTR.CAVITY>
0

>  <SCORE.RESTR.norm>
0

>  <SCORE.SYSTEM>
-20.1308

>  <SCORE.SYSTEM.CONST>
0

>  <SCORE.SYSTEM.DIHEDRAL>
4.982

>  <SCORE.SYSTEM.POLAR>
-3.04222

>  <SCORE.SYSTEM.SOLV>
0.0212683

>  <SCORE.SYSTEM.VDW>
-4.94755

>  <SCORE.SYSTEM.norm>
-2.23675

>  <SCORE.heavy>
9

>  <SCORE.norm>
-3.79668

$$$$
P23936416
 OpenBabel12072022113D
libRbt.so/2013.1/901 2013/11/27
 10 10  0  0  0  0  0  0  0  0999 V2000
  -31.5297   17.7893  -14.1313 C   0  0  0  0  0  0  0  0  0  0  0  0
  -30.5075   17.5475  -15.1576 N   0  3  2  0  0  0  0  0  0  0  0  0
  -29.5493   17.7268  -14.7508 H   0  0  0  0  0  0  0  0  0  0  0  0
  -30.4979   18.4382  -16.3645 C   0  0  0  0  0  0  0  0  0  0  0  0
  -29.9023   17.5876  -17.4832 C   0  0  0  0  0  0  0  0  0  0  0  0
  -29.4283   16.2999  -16.8318 C   0  0  2  0  0  0  0  0  0  0  0  0
  -30.3576   16.1289  -15.6547 C   0  0  0  0  0  0  0  0  0  0  0  0
  -28.0879   16.3966  -16.1064 C   0  0  0  0  0  0  0  0  0  0  0  0
  -28.1057   17.0591  -15.0440 O   0  0  0  0  0  0  0  0  0  0  0  0
  -27.1164   15.8909  -16.7496 O   0  5  0  0  0  0  0  0  0  0  0  0
  1  2  1  0  0  0  0
  2  3  1  1  0  0  0
  2  4  1  0  0  0  0
  2  7  1  0  0  0  0
  4  5  1  0  0  0  0
  5  6  1  0  0  0  0
  6  7  1  0  0  0  0
  6  8  1  1  0  0  0
  8  9  2  0  0  0  0
  8 10  1  0  0  0  0
M  CHG  2   2   1  10  -1
M  END
>  <CHROM.0>
-59.49880089,70.39211802,-67.78035344,-42.82349539,-59.31743816,-61.02489536
-67.67073874,-61.20388509,-169.34759637

>  <CHROM.1>
70.86867130,-29.48457267,17.02558277,-15.91270428,-2.80369863,0.45929856
-1.49593576

>  <Name>
P23936416

>  <RI>
0

>  <Rbt.Current_Directory>
/home/fstefaniak/projects/zuza/docking/adenine/4TZX

>  <Rbt.Executable>
rbdock ($Id: //depot/dev/client3/rdock/2013.1/src/exe/rbdock.cxx#4 $)

>  <Rbt.Library>
libRbt.so (2013.1, Build901 2013/11/27)

>  <Rbt.Parameter_File>
/home/fstefaniak/progs/rDock//data/scripts/dock_solv.prm

>  <Rbt.Receptor>
4tzx.prm

>  <SCORE>
-34.0021

>  <SCORE.INTER>
-14.9555

>  <SCORE.INTER.CONST>
1

>  <SCORE.INTER.POLAR>
-1.74374

>  <SCORE.INTER.ROT>
1

>  <SCORE.INTER.SOLV>
15.1346

>  <SCORE.INTER.VDW>
-13.4694

>  <SCORE.INTER.norm>
-1.66173

>  <SCORE.INTRA>
0.891912

>  <SCORE.INTRA.DIHEDRAL>
0.0516036

>  <SCORE.INTRA.DIHEDRAL.0>
0.91618

>  <SCORE.INTRA.POLAR>
-0.379197

>  <SCORE.INTRA.POLAR.0>
-0.178465

>  <SCORE.INTRA.REPUL>
0

>  <SCORE.INTRA.REPUL.0>
0

>  <SCORE.INTRA.SOLV>
0.0506624

>  <SCORE.INTRA.SOLV.lig_0>
-37.3311

>  <SCORE.INTRA.VDW>
2.13005

>  <SCORE.INTRA.VDW.0>
1.26299

>  <SCORE.INTRA.norm>
0.0991014

>  <SCORE.RESTR>
0

>  <SCORE.RESTR.CAVITY>
0

>  <SCORE.RESTR.norm>
0

>  <SCORE.SYSTEM>
-19.9384

>  <SCORE.SYSTEM.CONST>
0

>  <SCORE.SYSTEM.DIHEDRAL>
5.00901

>  <SCORE.SYSTEM.POLAR>
-3.04207

>  <SCORE.SYSTEM.SOLV>
0.198154

>  <SCORE.SYSTEM.VDW>
-4.88777

>  <SCORE.SYSTEM.norm>
-2.21538

>  <SCORE.heavy>
9

>  <SCORE.norm>
-3.77801

$$$$
P23936416
 OpenBabel12072022113D
libRbt.so/2013.1/901 2013/11/27
 10 10  0  0  0  0  0  0  0  0999 V2000
  -31.4965   17.8164  -14.1284 C   0  0  0  0  0  0  0  0  0  0  0  0
  -30.4802   17.5567  -15.1562 N   0  3  2  0  0  0  0  0  0  0  0  0
  -29.5194   17.7390  -14.7569 H   0  0  0  0  0  0  0  0  0  0  0  0
  -30.4740   18.4297  -16.3760 C   0  0  0  0  0  0  0  0  0  0  0  0
  -29.8865   17.5612  -17.4852 C   0  0  0  0  0  0  0  0  0  0  0  0
  -29.4131   16.2817  -16.8174 C   0  0  2  0  0  0  0  0  0  0  0  0
  -30.3370   16.1306  -15.6335 C   0  0  0  0  0  0  0  0  0  0  0  0
  -28.0688   16.3848  -16.1003 C   0  0  0  0  0  0  0  0  0  0  0  0
  -28.0832   17.0477  -15.0380 O   0  0  0  0  0  0  0  0  0  0  0  0
  -27.0989   15.8833  -16.7491 O   0  5  0  0  0  0  0  0  0  0  0  0
  1  2  1  0  0  0  0
  2  3  1  1  0  0  0
  2  4  1  0  0  0  0
  2  7  1  0  0  0  0
  4  5  1  0  0  0  0
  5  6  1  0  0  0  0
  6  7  1  0  0  0  0
  6  8  1  1  0  0  0
  8  9  2  0  0  0  0
  8 10  1  0  0  0  0
M  CHG  2   2   1  10  -1
M  END
>  <CHROM.0>
-58.72865306,69.06951056,-62.84217394,-42.94270092,-56.37288355,-60.82270933
-67.65120959,-173.83738197,-169.47760525

>  <CHROM.1>
71.78839559,-29.46270551,17.02092297,-15.90860414,-2.79818418,0.46169689
-1.50998672

>  <Name>
P23936416

>  <RI>
0

>  <Rbt.Current_Directory>
/home/fstefaniak/projects/zuza/docking/adenine/4TZX

>  <Rbt.Executable>
rbdock ($Id: //depot/dev/client3/rdock/2013.1/src/exe/rbdock.cxx#4 $)

>  <Rbt.Library>
libRbt.so (2013.1, Build901 2013/11/27)

>  <Rbt.Parameter_File>
/home/fstefaniak/progs/rDock//data/scripts/dock_solv.prm

>  <Rbt.Receptor>
4tzx.prm

>  <SCORE>
-33.8972

>  <SCORE.INTER>
-15.0387

>  <SCORE.INTER.CONST>
1

>  <SCORE.INTER.POLAR>
-1.71404

>  <SCORE.INTER.ROT>
1

>  <SCORE.INTER.SOLV>
15.166

>  <SCORE.INTER.VDW>
-13.6343

>  <SCORE.INTER.norm>
-1.67096

>  <SCORE.INTRA>
1.01952

>  <SCORE.INTRA.DIHEDRAL>
0.0455499

>  <SCORE.INTRA.DIHEDRAL.0>
0.91618

>  <SCORE.INTRA.POLAR>
-0.375535

>  <SCORE.INTRA.POLAR.0>
-0.178465

>  <SCORE.INTRA.REPUL>
0

>  <SCORE.INTRA.REPUL.0>
0

>  <SCORE.INTRA.SOLV>
0.0535877

>  <SCORE.INTRA.SOLV.lig_0>
-37.3311

>  <SCORE.INTRA.VDW>
2.24678

>  <SCORE.INTRA.VDW.0>
1.26299

>  <SCORE.INTRA.norm>
0.11328

>  <SCORE.RESTR>
0

>  <SCORE.RESTR.CAVITY>
0

>  <SCORE.RESTR.norm>
0

>  <SCORE.SYSTEM>
-19.8781

>  <SCORE.SYSTEM.CONST>
0

>  <SCORE.SYSTEM.DIHEDRAL>
4.84977

>  <SCORE.SYSTEM.POLAR>
-3.05464

>  <SCORE.SYSTEM.SOLV>
0.086211

>  <SCORE.SYSTEM.VDW>
-4.71524

>  <SCORE.SYSTEM.norm>
-2.20868

>  <SCORE.heavy>
9

>  <SCORE.norm>
-3.76636

$$$$
P23938388
 OpenBabel12072022113D
libRbt.so/2013.1/901 2013/11/27
 11 10  0  0  0  0  0  0  0  0999 V2000
  -25.1021   16.4464  -16.7737 C   0  0  0  0  0  0  0  0  0  0  0  0
  -25.6836   15.1800  -16.1620 C   0  0  0  0  0  0  0  0  0  0  0  0
  -27.1333   15.0818  -16.3406 N   0  0  0  0  0  0  0  0  0  0  0  0
  -27.6770   13.7373  -16.4893 C   0  0  0  0  0  0  0  0  0  0  0  0
  -27.9013   16.1609  -15.8813 C   0  0  0  0  0  0  0  0  0  0  0  0
  -27.4943   16.9393  -15.0245 O   0  0  0  0  0  0  0  0  0  0  0  0
  -29.1012   16.3115  -16.5341 N   0  0  0  0  0  0  0  0  0  0  0  0
  -30.1928   16.9406  -15.9739 C   0  0  0  0  0  0  0  0  0  0  0  0
  -30.7945   16.5699  -14.9723 O   0  0  0  0  0  0  0  0  0  0  0  0
  -30.7309   18.0468  -16.8436 C   0  0  0  0  0  0  0  0  0  0  0  0
  -29.0198   16.3291  -17.5354 H   0  0  0  0  0  0  0  0  0  0  0  0
  1  2  1  0  0  0  0
  2  3  1  0  0  0  0
  3  4  1  0  0  0  0
  3  5  1  0  0  0  0
  5  6  2  0  0  0  0
  5  7  1  0  0  0  0
  7  8  1  0  0  0  0
  7 11  1  0  0  0  0
  8  9  2  0  0  0  0
  8 10  1  0  0  0  0
M  END
>  <CHROM.0>
-62.77525601,65.14032595,-67.87747939,-40.88675714,-57.58747377,-58.84462236
-68.41277504,-174.63082490,-168.82667872

>  <CHROM.1>
147.56766646,-22.27462576,155.45624380,-62.66605903,-28.18189343,16.14686844
-16.09678787,-0.37792711,0.08462223,0.01619291

>  <Name>
P23938388

>  <RI>
0

>  <Rbt.Current_Directory>
/home/fstefaniak/projects/zuza/docking/adenine/4TZX

>  <Rbt.Executable>
rbdock ($Id: //depot/dev/client3/rdock/2013.1/src/exe/rbdock.cxx#4 $)

>  <Rbt.Library>
libRbt.so (2013.1, Build901 2013/11/27)

>  <Rbt.Parameter_File>
/home/fstefaniak/progs/rDock//data/scripts/dock_solv.prm

>  <Rbt.Receptor>
4tzx.prm

>  <SCORE>
-45.399

>  <SCORE.INTER>
-23.7258

>  <SCORE.INTER.CONST>
1

>  <SCORE.INTER.POLAR>
-3.13936

>  <SCORE.INTER.ROT>
4

>  <SCORE.INTER.SOLV>
10.1395

>  <SCORE.INTER.VDW>
-14.9992

>  <SCORE.INTER.norm>
-2.37258

>  <SCORE.INTRA>
-1.60593

>  <SCORE.INTRA.DIHEDRAL>
0.0190464

>  <SCORE.INTRA.DIHEDRAL.0>
2.07448

>  <SCORE.INTRA.POLAR>
0

>  <SCORE.INTRA.POLAR.0>
0

>  <SCORE.INTRA.REPUL>
0

>  <SCORE.INTRA.REPUL.0>
0

>  <SCORE.INTRA.SOLV>
0.0856603

>  <SCORE.INTRA.SOLV.lig_0>
-15.1388

>  <SCORE.INTRA.VDW>
-1.65828

>  <SCORE.INTRA.VDW.0>
2.89487

>  <SCORE.INTRA.norm>
-0.160593

>  <SCORE.RESTR>
0

>  <SCORE.RESTR.CAVITY>
0

>  <SCORE.RESTR.norm>
0

>  <SCORE.SYSTEM>
-20.0673

>  <SCORE.SYSTEM.CONST>
0

>  <SCORE.SYSTEM.DIHEDRAL>
5.20698

>  <SCORE.SYSTEM.POLAR>
-3.06625

>  <SCORE.SYSTEM.SOLV>
0.0916355

>  <SCORE.SYSTEM.VDW>
-4.92359

>  <SCORE.SYSTEM.norm>
-2.00673

>  <SCORE.heavy>
10

>  <SCORE.norm>
-4.5399

$$$$
P23938388
 OpenBabel12072022113D
libRbt.so/2013.1/901 2013/11/27
 11 10  0  0  0  0  0  0  0  0999 V2000
  -25.1818   16.3849  -16.9713 C   0  0  0  0  0  0  0  0  0  0  0  0
  -25.9041   15.4042  -16.0588 C   0  0  0  0  0  0  0  0  0  0  0  0
  -27.3408   15.3341  -16.3312 N   0  0  0  0  0  0  0  0  0  0  0  0
  -27.9075   13.9984  -16.4738 C   0  0  0  0  0  0  0  0  0  0  0  0
  -28.1099   16.4454  -15.9584 C   0  0  0  0  0  0  0  0  0  0  0  0
  -27.9339   17.0408  -14.9000 O   0  0  0  0  0  0  0  0  0  0  0  0
  -29.0087   16.8501  -16.9158 N   0  0  0  0  0  0  0  0  0  0  0  0
  -30.0340   17.7369  -16.6634 C   0  0  0  0  0  0  0  0  0  0  0  0
  -30.6311   17.8540  -15.5993 O   0  0  0  0  0  0  0  0  0  0  0  0
  -30.5150   18.4332  -17.9098 C   0  0  0  0  0  0  0  0  0  0  0  0
  -28.6486   16.8130  -17.8531 H   0  0  0  0  0  0  0  0  0  0  0  0
  1  2  1  0  0  0  0
  2  3  1  0  0  0  0
  3  4  1  0  0  0  0
  3  5  1  0  0  0  0
  5  6  2  0  0  0  0
  5  7  1  0  0  0  0
  7  8  1  0  0  0  0
  7 11  1  0  0  0  0
  8  9  2  0  0  0  0
  8 10  1  0  0  0  0
M  END
>  <CHROM.0>
-63.89025533,56.12142114,-65.72379090,-42.79746916,-64.66539105,-67.56291153
-66.42294751,-56.09918145,-168.26342974

>  <CHROM.1>
131.24691409,-41.36186159,166.63731165,-31.84479683,-28.25655287,16.55381123
-16.37493603,-0.54775157,0.14299955,-0.36283056

>  <Name>
P23938388

>  <RI>
0

>  <Rbt.Current_Directory>
/home/fstefaniak/projects/zuza/docking/adenine/4TZX

>  <Rbt.Executable>
rbdock ($Id: //depot/dev/client3/rdock/2013.1/src/exe/rbdock.cxx#4 $)

>  <Rbt.Library>
libRbt.so (2013.1, Build901 2013/11/27)

>  <Rbt.Parameter_File>
/home/fstefaniak/progs/rDock//data/scripts/dock_solv.prm

>  <Rbt.Receptor>
4tzx.prm

>  <SCORE>
-43.556

>  <SCORE.INTER>
-21.0264

>  <SCORE.INTER.CONST>
1

>  <SCORE.INTER.POLAR>
-2.68092

>  <SCORE.INTER.ROT>
4

>  <SCORE.INTER.SOLV>
10.1459

>  <SCORE.INTER.VDW>
-14.7298

>  <SCORE.INTER.norm>
-2.10264

>  <SCORE.INTRA>
-2.31898

>  <SCORE.INTRA.DIHEDRAL>
0.591319

>  <SCORE.INTRA.DIHEDRAL.0>
2.07448

>  <SCORE.INTRA.POLAR>
0

>  <SCORE.INTRA.POLAR.0>
0

>  <SCORE.INTRA.REPUL>
0

>  <SCORE.INTRA.REPUL.0>
0

>  <SCORE.INTRA.SOLV>
0.0537306

>  <SCORE.INTRA.SOLV.lig_0>
-15.1388

>  <SCORE.INTRA.VDW>
-2.6415

>  <SCORE.INTRA.VDW.0>
2.89487

>  <SCORE.INTRA.norm>
-0.231898

>  <SCORE.RESTR>
0

>  <SCORE.RESTR.CAVITY>
0

>  <SCORE.RESTR.norm>
0

>  <SCORE.SYSTEM>
-20.2107

>  <SCORE.SYSTEM.CONST>
0

>  <SCORE.SYSTEM.DIHEDRAL>
4.95635

>  <SCORE.SYSTEM.POLAR>
-3.0463

>  <SCORE.SYSTEM.SOLV>
0.239097

>  <SCORE.SYSTEM.VDW>
-5.05126

>  <SCORE.SYSTEM.norm>
-2.02107

>  <SCORE.heavy>
10

>  <SCORE.norm>
-4.3556

$$$$
P23938388
 OpenBabel12072022113D
libRbt.so/2013.1/901 2013/11/27
 11 10  0  0  0  0  0  0  0  0999 V2000
  -27.5651   12.8213  -16.2247 C   0  0  0  0  0  0  0  0  0  0  0  0
  -28.1919   13.9853  -16.9786 C   0  0  0  0  0  0  0  0  0  0  0  0
  -28.0277   15.2622  -16.2817 N   0  0  0  0  0  0  0  0  0  0  0  0
  -26.6971   15.8566  -16.3258 C   0  0  0  0  0  0  0  0  0  0  0  0
  -29.1875   16.0209  -16.0703 C   0  0  0  0  0  0  0  0  0  0  0  0
  -29.7348   16.0928  -14.9745 O   0  0  0  0  0  0  0  0  0  0  0  0
  -29.5977   16.7340  -17.1710 N   0  0  0  0  0  0  0  0  0  0  0  0
  -30.2442   17.9490  -17.0867 C   0  0  0  0  0  0  0  0  0  0  0  0
  -30.6516   18.4710  -16.0551 O   0  0  0  0  0  0  0  0  0  0  0  0
  -30.6039   18.5067  -18.4392 C   0  0  0  0  0  0  0  0  0  0  0  0
  -29.0548   16.5546  -17.9972 H   0  0  0  0  0  0  0  0  0  0  0  0
  1  2  1  0  0  0  0
  2  3  1  0  0  0  0
  3  4  1  0  0  0  0
  3  5  1  0  0  0  0
  5  6  2  0  0  0  0
  5  7  1  0  0  0  0
  7  8  1  0  0  0  0
  7 11  1  0  0  0  0
  8  9  2  0  0  0  0
  8 10  1  0  0  0  0
M  END
>  <CHROM.0>
-58.92236997,-59.97297267,-64.69793926,-42.34873734,-56.57585409,-174.74832077
-66.06730537,-59.96012316,-168.70463276

>  <CHROM.1>
74.58391336,104.19230820,-148.41987867,-7.95137598,-29.04694343,16.17108771
-16.55075976,-0.46440704,0.90275631,-1.19148079

>  <Name>
P23938388

>  <RI>
0

>  <Rbt.Current_Directory>
/home/fstefaniak/projects/zuza/docking/adenine/4TZX

>  <Rbt.Executable>
rbdock ($Id: //depot/dev/client3/rdock/2013.1/src/exe/rbdock.cxx#4 $)

>  <Rbt.Library>
libRbt.so (2013.1, Build901 2013/11/27)

>  <Rbt.Parameter_File>
/home/fstefaniak/progs/rDock//data/scripts/dock_solv.prm

>  <Rbt.Receptor>
4tzx.prm

>  <SCORE>
-43.2939

>  <SCORE.INTER>
-20.2633

>  <SCORE.INTER.CONST>
1

>  <SCORE.INTER.POLAR>
-2.09684

>  <SCORE.INTER.ROT>
4

>  <SCORE.INTER.SOLV>
10.332

>  <SCORE.INTER.VDW>
-16.2301

>  <SCORE.INTER.norm>
-2.02633

>  <SCORE.INTRA>
-2.13704

>  <SCORE.INTRA.DIHEDRAL>
0.723295

>  <SCORE.INTRA.DIHEDRAL.0>
2.07448

>  <SCORE.INTRA.POLAR>
0

>  <SCORE.INTRA.POLAR.0>
0

>  <SCORE.INTRA.REPUL>
0

>  <SCORE.INTRA.REPUL.0>
0

>  <SCORE.INTRA.SOLV>
-0.0251616

>  <SCORE.INTRA.SOLV.lig_0>
-15.1388

>  <SCORE.INTRA.VDW>
-2.48611

>  <SCORE.INTRA.VDW.0>
2.89487

>  <SCORE.INTRA.norm>
-0.213704

>  <SCORE.RESTR>
0

>  <SCORE.RESTR.CAVITY>
0

>  <SCORE.RESTR.norm>
0

>  <SCORE.SYSTEM>
-20.8935

>  <SCORE.SYSTEM.CONST>
0

>  <SCORE.SYSTEM.DIHEDRAL>
4.52742

>  <SCORE.SYSTEM.POLAR>
-3.0715

>  <SCORE.SYSTEM.SOLV>
0.0793428

>  <SCORE.SYSTEM.VDW>
-5.22626

>  <SCORE.SYSTEM.norm>
-2.08935

>  <SCORE.heavy>
10

>  <SCORE.norm>
-4.32939

$$$$
P23963563
 OpenBabel12072022113D
libRbt.so/2013.1/901 2013/11/27
 15 15  0  0  0  0  0  0  0  0999 V2000
  -28.3538   13.8329  -16.1920 C   0  0  0  0  0  0  0  0  0  0  0  0
  -29.1829   14.9604  -16.1411 C   0  0  0  0  0  0  0  0  0  0  0  0
  -28.6294   16.2419  -16.1761 C   0  0  0  0  0  0  0  0  0  0  0  0
  -27.2382   16.3807  -16.2567 C   0  0  0  0  0  0  0  0  0  0  0  0
  -26.4073   15.2552  -16.3087 C   0  0  0  0  0  0  0  0  0  0  0  0
  -26.9647   13.9733  -16.2870 C   0  0  0  0  0  0  0  0  0  0  0  0
  -26.1325   12.7416  -16.3353 C   0  0  0  0  0  0  0  0  0  0  0  0
  -26.6217   11.6308  -16.1752 O   0  0  0  0  0  0  0  0  0  0  0  0
  -24.8001   12.8872  -16.6039 N   0  0  0  0  0  0  0  0  0  0  0  0
  -29.3909   17.4196  -16.1292 N   0  0  0  0  0  0  0  0  0  0  0  0
  -30.7341   17.5464  -15.9303 C   0  0  0  0  0  0  0  0  0  0  0  0
  -31.2945   18.6362  -15.9116 O   0  0  0  0  0  0  0  0  0  0  0  0
  -24.1906   13.4805  -16.0610 H   0  0  0  0  0  0  0  0  0  0  0  0
  -24.5070   12.6496  -17.5434 H   0  0  0  0  0  0  0  0  0  0  0  0
  -28.9190   18.3074  -16.2538 H   0  0  0  0  0  0  0  0  0  0  0  0
  1  2  2  0  0  0  0
  1  6  1  0  0  0  0
  2  3  1  0  0  0  0
  3  4  2  0  0  0  0
  3 10  1  0  0  0  0
  4  5  1  0  0  0  0
  5  6  2  0  0  0  0
  6  7  1  0  0  0  0
  7  8  2  0  0  0  0
  7  9  1  0  0  0  0
  9 13  1  0  0  0  0
  9 14  1  0  0  0  0
 10 11  1  0  0  0  0
 10 15  1  0  0  0  0
 11 12  2  0  0  0  0
M  END
>  <CHROM.0>
-59.59557518,-173.94865944,-63.90682304,-43.14306379,-58.57732282,-61.31739448
-67.69297671,-61.06899719,-169.22672677

>  <CHROM.1>
6.16270090,-6.57689771,55.61668495,-27.97885538,15.13523805,-16.20656676
0.84879232,-0.11065956,3.11901227

>  <Name>
P23963563

>  <RI>
0

>  <Rbt.Current_Directory>
/home/fstefaniak/projects/zuza/docking/adenine/4TZX

>  <Rbt.Executable>
rbdock ($Id: //depot/dev/client3/rdock/2013.1/src/exe/rbdock.cxx#4 $)

>  <Rbt.Library>
libRbt.so (2013.1, Build901 2013/11/27)

>  <Rbt.Parameter_File>
/home/fstefaniak/progs/rDock//data/scripts/dock_solv.prm

>  <Rbt.Receptor>
4tzx.prm

>  <SCORE>
-44.892

>  <SCORE.INTER>
-23.4055

>  <SCORE.INTER.CONST>
1

>  <SCORE.INTER.POLAR>
-2.59567

>  <SCORE.INTER.ROT>
3

>  <SCORE.INTER.SOLV>
8.96358

>  <SCORE.INTER.VDW>
-15.5393

>  <SCORE.INTER.norm>
-1.95046

>  <SCORE.INTRA>
-0.66166

>  <SCORE.INTRA.DIHEDRAL>
-1.28063

>  <SCORE.INTRA.DIHEDRAL.0>
2.18257

>  <SCORE.INTRA.POLAR>
0

>  <SCORE.INTRA.POLAR.0>
0

>  <SCORE.INTRA.REPUL>
0

>  <SCORE.INTRA.REPUL.0>
0

>  <SCORE.INTRA.SOLV>
-0.0040515

>  <SCORE.INTRA.SOLV.lig_0>
-18.7183

>  <SCORE.INTRA.VDW>
-0.0193175

>  <SCORE.INTRA.VDW.0>
-0.191828

>  <SCORE.INTRA.norm>
-0.0551383

>  <SCORE.RESTR>
0.21082

>  <SCORE.RESTR.CAVITY>
0.21082

>  <SCORE.RESTR.norm>
0.0175683

>  <SCORE.SYSTEM>
-21.0357

>  <SCORE.SYSTEM.CONST>
0

>  <SCORE.SYSTEM.DIHEDRAL>
4.44759

>  <SCORE.SYSTEM.POLAR>
-3.04814

>  <SCORE.SYSTEM.SOLV>
0.154535

>  <SCORE.SYSTEM.VDW>
-5.39737

>  <SCORE.SYSTEM.norm>
-1.75297

>  <SCORE.heavy>
12

>  <SCORE.norm>
-3.741

$$$$
P23963563
 OpenBabel12072022113D
libRbt.so/2013.1/901 2013/11/27
 15 15  0  0  0  0  0  0  0  0999 V2000
  -28.3999   13.8682  -16.2294 C   0  0  0  0  0  0  0  0  0  0  0  0
  -29.2260   14.9969  -16.1601 C   0  0  0  0  0  0  0  0  0  0  0  0
  -28.6687   16.2773  -16.1671 C   0  0  0  0  0  0  0  0  0  0  0  0
  -27.2768   16.4135  -16.2386 C   0  0  0  0  0  0  0  0  0  0  0  0
  -26.4488   15.2868  -16.3089 C   0  0  0  0  0  0  0  0  0  0  0  0
  -27.0100   14.0064  -16.3151 C   0  0  0  0  0  0  0  0  0  0  0  0
  -26.1811   12.7735  -16.3839 C   0  0  0  0  0  0  0  0  0  0  0  0
  -26.6757   11.6607  -16.2576 O   0  0  0  0  0  0  0  0  0  0  0  0
  -24.8450   12.9211  -16.6326 N   0  0  0  0  0  0  0  0  0  0  0  0
  -29.4270   17.4560  -16.1005 N   0  0  0  0  0  0  0  0  0  0  0  0
  -30.7691   17.5832  -15.8946 C   0  0  0  0  0  0  0  0  0  0  0  0
  -31.3268   18.6740  -15.8582 O   0  0  0  0  0  0  0  0  0  0  0  0
  -24.2516   13.5416  -16.1024 H   0  0  0  0  0  0  0  0  0  0  0  0
  -24.5315   12.6489  -17.5559 H   0  0  0  0  0  0  0  0  0  0  0  0
  -28.9534   18.3444  -16.2143 H   0  0  0  0  0  0  0  0  0  0  0  0
  1  2  2  0  0  0  0
  1  6  1  0  0  0  0
  2  3  1  0  0  0  0
  3  4  2  0  0  0  0
  3 10  1  0  0  0  0
  4  5  1  0  0  0  0
  5  6  2  0  0  0  0
  6  7  1  0  0  0  0
  7  8  2  0  0  0  0
  7  9  1  0  0  0  0
  9 13  1  0  0  0  0
  9 14  1  0  0  0  0
 10 11  1  0  0  0  0
 10 15  1  0  0  0  0
 11 12  2  0  0  0  0
M  END
>  <CHROM.0>
-62.02147922,-174.31633625,-65.70609061,-44.75558075,-178.83070013,-64.90185063
-65.81147881,-61.83846436,-169.04714315

>  <CHROM.1>
6.74714898,-6.04994929,51.79366519,-28.02086007,15.16949774,-16.21464414
0.85206549,-0.10510227,3.14116271

>  <Name>
P23963563

>  <RI>
0

>  <Rbt.Current_Directory>
/home/fstefaniak/projects/zuza/docking/adenine/4TZX

>  <Rbt.Executable>
rbdock ($Id: //depot/dev/client3/rdock/2013.1/src/exe/rbdock.cxx#4 $)

>  <Rbt.Library>
libRbt.so (2013.1, Build901 2013/11/27)

>  <Rbt.Parameter_File>
/home/fstefaniak/progs/rDock//data/scripts/dock_solv.prm

>  <Rbt.Receptor>
4tzx.prm

>  <SCORE>
-44.8484

>  <SCORE.INTER>
-23.208

>  <SCORE.INTER.CONST>
1

>  <SCORE.INTER.POLAR>
-2.58622

>  <SCORE.INTER.ROT>
3

>  <SCORE.INTER.SOLV>
9.10845

>  <SCORE.INTER.VDW>
-15.4874

>  <SCORE.INTER.norm>
-1.934

>  <SCORE.INTRA>
-0.651316

>  <SCORE.INTRA.DIHEDRAL>
-1.28225

>  <SCORE.INTRA.DIHEDRAL.0>
2.18257

>  <SCORE.INTRA.POLAR>
0

>  <SCORE.INTRA.POLAR.0>
0

>  <SCORE.INTRA.REPUL>
0

>  <SCORE.INTRA.REPUL.0>
0

>  <SCORE.INTRA.SOLV>
-0.00333278

>  <SCORE.INTRA.SOLV.lig_0>
-18.7183

>  <SCORE.INTRA.VDW>
-0.00852181

>  <SCORE.INTRA.VDW.0>
-0.191828

>  <SCORE.INTRA.norm>
-0.0542763

>  <SCORE.RESTR>
0.181524

>  <SCORE.RESTR.CAVITY>
0.181524

>  <SCORE.RESTR.norm>
0.015127

>  <SCORE.SYSTEM>
-21.1706

>  <SCORE.SYSTEM.CONST>
0

>  <SCORE.SYSTEM.DIHEDRAL>
4.31439

>  <SCORE.SYSTEM.POLAR>
-2.99393

>  <SCORE.SYSTEM.SOLV>
-0.0451814

>  <SCORE.SYSTEM.VDW>
-5.55702

>  <SCORE.SYSTEM.norm>
-1.76421

>  <SCORE.heavy>
12

>  <SCORE.norm>
-3.73737

$$$$
P23963563
 OpenBabel12072022113D
libRbt.so/2013.1/901 2013/11/27
 15 15  0  0  0  0  0  0  0  0999 V2000
  -28.5209   13.9356  -16.1722 C   0  0  0  0  0  0  0  0  0  0  0  0
  -29.6454   14.7544  -16.0100 C   0  0  0  0  0  0  0  0  0  0  0  0
  -29.5058   16.1437  -15.9878 C   0  0  0  0  0  0  0  0  0  0  0  0
  -28.2287   16.7019  -16.1241 C   0  0  0  0  0  0  0  0  0  0  0  0
  -27.1032   15.8855  -16.2874 C   0  0  0  0  0  0  0  0  0  0  0  0
  -27.2473   14.4954  -16.3226 C   0  0  0  0  0  0  0  0  0  0  0  0
  -26.0884   13.5783  -16.4891 C   0  0  0  0  0  0  0  0  0  0  0  0
  -26.1790   12.3809  -16.2505 O   0  0  0  0  0  0  0  0  0  0  0  0
  -24.9200   14.1119  -16.9570 N   0  0  0  0  0  0  0  0  0  0  0  0
  -30.5813   17.0310  -15.8295 N   0  0  0  0  0  0  0  0  0  0  0  0
  -30.6315   18.3574  -16.1427 C   0  0  0  0  0  0  0  0  0  0  0  0
  -31.6336   19.0380  -15.9560 O   0  0  0  0  0  0  0  0  0  0  0  0
  -24.0974   14.2242  -16.3834 H   0  0  0  0  0  0  0  0  0  0  0  0
  -24.9944   14.6873  -17.7866 H   0  0  0  0  0  0  0  0  0  0  0  0
  -31.4465   16.6792  -15.4370 H   0  0  0  0  0  0  0  0  0  0  0  0
  1  2  2  0  0  0  0
  1  6  1  0  0  0  0
  2  3  1  0  0  0  0
  3  4  2  0  0  0  0
  3 10  1  0  0  0  0
  4  5  1  0  0  0  0
  5  6  2  0  0  0  0
  6  7  1  0  0  0  0
  7  8  2  0  0  0  0
  7  9  1  0  0  0  0
  9 13  1  0  0  0  0
  9 14  1  0  0  0  0
 10 11  1  0  0  0  0
 10 15  1  0  0  0  0
 11 12  2  0  0  0  0
M  END
>  <CHROM.0>
-58.39096859,-61.83275592,-64.94621413,-43.09158185,-60.49466056,-62.17577084
-65.61938947,-174.27061882,-169.09276765

>  <CHROM.1>
-160.72033193,-13.86340487,109.67017114,-28.35559338,15.54971555,-16.21399328
0.73377783,-0.18470871,3.06031529

>  <Name>
P23963563

>  <RI>
0

>  <Rbt.Current_Directory>
/home/fstefaniak/projects/zuza/docking/adenine/4TZX

>  <Rbt.Executable>
rbdock ($Id: //depot/dev/client3/rdock/2013.1/src/exe/rbdock.cxx#4 $)

>  <Rbt.Library>
libRbt.so (2013.1, Build901 2013/11/27)

>  <Rbt.Parameter_File>
/home/fstefaniak/progs/rDock//data/scripts/dock_solv.prm

>  <Rbt.Receptor>
4tzx.prm

>  <SCORE>
-43.1803

>  <SCORE.INTER>
-22.478

>  <SCORE.INTER.CONST>
1

>  <SCORE.INTER.POLAR>
-2.78485

>  <SCORE.INTER.ROT>
3

>  <SCORE.INTER.SOLV>
11.5664

>  <SCORE.INTER.VDW>
-15.158

>  <SCORE.INTER.norm>
-1.87317

>  <SCORE.INTRA>
0.431699

>  <SCORE.INTRA.DIHEDRAL>
0.599675

>  <SCORE.INTRA.DIHEDRAL.0>
2.18257

>  <SCORE.INTRA.POLAR>
0

>  <SCORE.INTRA.POLAR.0>
0

>  <SCORE.INTRA.REPUL>
0

>  <SCORE.INTRA.REPUL.0>
0

>  <SCORE.INTRA.SOLV>
0.0105798

>  <SCORE.INTRA.SOLV.lig_0>
-18.7183

>  <SCORE.INTRA.VDW>
0.126571

>  <SCORE.INTRA.VDW.0>
-0.191828

>  <SCORE.INTRA.norm>
0.0359749

>  <SCORE.RESTR>
0

>  <SCORE.RESTR.CAVITY>
0

>  <SCORE.RESTR.norm>
0

>  <SCORE.SYSTEM>
-21.1339

>  <SCORE.SYSTEM.CONST>
0

>  <SCORE.SYSTEM.DIHEDRAL>
4.38559

>  <SCORE.SYSTEM.POLAR>
-3.05687

>  <SCORE.SYSTEM.SOLV>
0.0570905

>  <SCORE.SYSTEM.VDW>
-5.3806

>  <SCORE.SYSTEM.norm>
-1.76116

>  <SCORE.heavy>
12

>  <SCORE.norm>
-3.59836

$$$$
P24019403
 OpenBabel12072022113D
libRbt.so/2013.1/901 2013/11/27
 14 14  0  0  0  0  0  0  0  0999 V2000
  -28.4779   17.4243  -15.3366 C   0  0  0  0  0  0  0  0  0  0  0  0
  -29.5888   16.7036  -16.0985 C   0  0  1  0  0  0  0  0  0  0  0  0
  -30.9537   17.1411  -15.5382 C   0  0  0  0  0  0  0  0  0  0  0  0
  -31.3867   16.9037  -14.4211 O   0  0  0  0  0  0  0  0  0  0  0  0
  -31.6017   17.8615  -16.4942 N   0  0  0  0  0  0  0  0  0  0  0  0
  -30.8719   17.9286  -17.6317 C   0  0  0  0  0  0  0  0  0  0  0  0
  -31.1868   18.5006  -18.6588 O   0  0  0  0  0  0  0  0  0  0  0  0
  -29.7024   17.2319  -17.4418 N   0  0  0  0  0  0  0  0  0  0  0  0
  -29.3984   15.1815  -16.0677 C   0  0  0  0  0  0  0  0  0  0  0  0
  -28.0279   14.7022  -16.5646 C   0  0  0  0  0  0  0  0  0  0  0  0
  -28.0376   13.2229  -16.8286 C   0  0  0  0  0  0  0  0  0  0  0  0
  -27.6717   12.6660  -17.9899 C   0  0  0  0  0  0  0  0  0  0  0  0
  -32.5113   18.2750  -16.3842 H   0  0  0  0  0  0  0  0  0  0  0  0
  -28.9956   17.1891  -18.1652 H   0  0  0  0  0  0  0  0  0  0  0  0
  2  1  1  1  0  0  0
  2  3  1  0  0  0  0
  2  8  1  0  0  0  0
  2  9  1  0  0  0  0
  3  4  2  0  0  0  0
  3  5  1  0  0  0  0
  5  6  1  0  0  0  0
  5 13  1  0  0  0  0
  6  7  2  0  0  0  0
  6  8  1  0  0  0  0
  8 14  1  0  0  0  0
  9 10  1  0  0  0  0
 10 11  1  0  0  0  0
 11 12  2  0  0  0  0
M  END
>  <CHROM.0>
-57.22295361,-63.08398837,-66.73117783,-43.26566863,-175.33968699,-59.04191546
-66.86685501,-173.64559722,-168.93659581

>  <CHROM.1>
-54.37843593,-165.81665774,125.94619540,-29.76668314,16.32948423,-16.59332445
3.09621998,0.94490072,-1.42984134

>  <Name>
P24019403

>  <RI>
0

>  <Rbt.Current_Directory>
/home/fstefaniak/projects/zuza/docking/adenine/4TZX

>  <Rbt.Executable>
rbdock ($Id: //depot/dev/client3/rdock/2013.1/src/exe/rbdock.cxx#4 $)

>  <Rbt.Library>
libRbt.so (2013.1, Build901 2013/11/27)

>  <Rbt.Parameter_File>
/home/fstefaniak/progs/rDock//data/scripts/dock_solv.prm

>  <Rbt.Receptor>
4tzx.prm

>  <SCORE>
-41.0814

>  <SCORE.INTER>
-21.2664

>  <SCORE.INTER.CONST>
1

>  <SCORE.INTER.POLAR>
-1.8255

>  <SCORE.INTER.ROT>
3

>  <SCORE.INTER.SOLV>
13.0017

>  <SCORE.INTER.VDW>
-18.0265

>  <SCORE.INTER.norm>
-1.7722

>  <SCORE.INTRA>
1.44495

>  <SCORE.INTRA.DIHEDRAL>
0.911377

>  <SCORE.INTRA.DIHEDRAL.0>
0.0492842

>  <SCORE.INTRA.POLAR>
0

>  <SCORE.INTRA.POLAR.0>
0

>  <SCORE.INTRA.REPUL>
0

>  <SCORE.INTRA.REPUL.0>
0

>  <SCORE.INTRA.SOLV>
-0.508996

>  <SCORE.INTRA.SOLV.lig_0>
-17.1227

>  <SCORE.INTRA.VDW>
1.24376

>  <SCORE.INTRA.VDW.0>
-0.649006

>  <SCORE.INTRA.norm>
0.120413

>  <SCORE.RESTR>
0

>  <SCORE.RESTR.CAVITY>
0

>  <SCORE.RESTR.norm>
0

>  <SCORE.SYSTEM>
-21.26

>  <SCORE.SYSTEM.CONST>
0

>  <SCORE.SYSTEM.DIHEDRAL>
4.70537

>  <SCORE.SYSTEM.POLAR>
-3.06507

>  <SCORE.SYSTEM.SOLV>
-0.125853

>  <SCORE.SYSTEM.VDW>
-5.48293

>  <SCORE.SYSTEM.norm>
-1.77166

>  <SCORE.heavy>
12

>  <SCORE.norm>
-3.42345

$$$$
P24019403
 OpenBabel12072022113D
libRbt.so/2013.1/901 2013/11/27
 14 14  0  0  0  0  0  0  0  0999 V2000
  -28.4396   17.3723  -15.3760 C   0  0  0  0  0  0  0  0  0  0  0  0
  -29.5721   16.6717  -16.1246 C   0  0  1  0  0  0  0  0  0  0  0  0
  -30.9226   17.1419  -15.5558 C   0  0  0  0  0  0  0  0  0  0  0  0
  -31.3514   16.9202  -14.4338 O   0  0  0  0  0  0  0  0  0  0  0  0
  -31.5626   17.8709  -16.5106 N   0  0  0  0  0  0  0  0  0  0  0  0
  -30.8409   17.9158  -17.6544 C   0  0  0  0  0  0  0  0  0  0  0  0
  -31.1519   18.4886  -18.6822 O   0  0  0  0  0  0  0  0  0  0  0  0
  -29.6853   17.1948  -17.4700 N   0  0  0  0  0  0  0  0  0  0  0  0
  -29.4145   15.1460  -16.0866 C   0  0  0  0  0  0  0  0  0  0  0  0
  -28.0634   14.6335  -16.6032 C   0  0  0  0  0  0  0  0  0  0  0  0
  -28.0254   13.1313  -16.6139 C   0  0  0  0  0  0  0  0  0  0  0  0
  -27.6186   12.3990  -17.6584 C   0  0  0  0  0  0  0  0  0  0  0  0
  -32.4621   18.3046  -16.3957 H   0  0  0  0  0  0  0  0  0  0  0  0
  -28.9856   17.1326  -18.1988 H   0  0  0  0  0  0  0  0  0  0  0  0
  2  1  1  1  0  0  0
  2  3  1  0  0  0  0
  2  8  1  0  0  0  0
  2  9  1  0  0  0  0
  3  4  2  0  0  0  0
  3  5  1  0  0  0  0
  5  6  1  0  0  0  0
  5 13  1  0  0  0  0
  6  7  2  0  0  0  0
  6  8  1  0  0  0  0
  8 14  1  0  0  0  0
  9 10  1  0  0  0  0
 10 11  1  0  0  0  0
 11 12  2  0  0  0  0
M  END
>  <CHROM.0>
-61.50079307,-59.28642472,-65.13363399,-43.26358058,-56.82014932,-67.46699306
-63.17599829,-56.58593673,-166.86248688

>  <CHROM.1>
-54.88349791,-176.37606852,131.44776066,-29.74485326,16.28162683,-16.56953991
3.01302872,0.95997746,-1.39099338

>  <Name>
P24019403

>  <RI>
0

>  <Rbt.Current_Directory>
/home/fstefaniak/projects/zuza/docking/adenine/4TZX

>  <Rbt.Executable>
rbdock ($Id: //depot/dev/client3/rdock/2013.1/src/exe/rbdock.cxx#4 $)

>  <Rbt.Library>
libRbt.so (2013.1, Build901 2013/11/27)

>  <Rbt.Parameter_File>
/home/fstefaniak/progs/rDock//data/scripts/dock_solv.prm

>  <Rbt.Receptor>
4tzx.prm

>  <SCORE>
-40.7015

>  <SCORE.INTER>
-20.918

>  <SCORE.INTER.CONST>
1

>  <SCORE.INTER.POLAR>
-1.89771

>  <SCORE.INTER.ROT>
3

>  <SCORE.INTER.SOLV>
12.7853

>  <SCORE.INTER.VDW>
-17.4814

>  <SCORE.INTER.norm>
-1.74316

>  <SCORE.INTRA>
1.183

>  <SCORE.INTRA.DIHEDRAL>
0.418873

>  <SCORE.INTRA.DIHEDRAL.0>
0.0492842

>  <SCORE.INTRA.POLAR>
0

>  <SCORE.INTRA.POLAR.0>
0

>  <SCORE.INTRA.REPUL>
0

>  <SCORE.INTRA.REPUL.0>
0

>  <SCORE.INTRA.SOLV>
-0.52287

>  <SCORE.INTRA.SOLV.lig_0>
-17.1227

>  <SCORE.INTRA.VDW>
1.235

>  <SCORE.INTRA.VDW.0>
-0.649006

>  <SCORE.INTRA.norm>
0.0985834

>  <SCORE.RESTR>
0

>  <SCORE.RESTR.CAVITY>
0

>  <SCORE.RESTR.norm>
0

>  <SCORE.SYSTEM>
-20.9666

>  <SCORE.SYSTEM.CONST>
0

>  <SCORE.SYSTEM.DIHEDRAL>
4.66357

>  <SCORE.SYSTEM.POLAR>
-3.05273

>  <SCORE.SYSTEM.SOLV>
0.186174

>  <SCORE.SYSTEM.VDW>
-5.41853

>  <SCORE.SYSTEM.norm>
-1.74722

>  <SCORE.heavy>
12

>  <SCORE.norm>
-3.3918

$$$$
P24019403
 OpenBabel12072022113D
libRbt.so/2013.1/901 2013/11/27
 14 14  0  0  0  0  0  0  0  0999 V2000
  -28.4133   17.4067  -15.3792 C   0  0  0  0  0  0  0  0  0  0  0  0
  -29.5547   16.6922  -16.1010 C   0  0  1  0  0  0  0  0  0  0  0  0
  -30.8983   17.1749  -15.5266 C   0  0  0  0  0  0  0  0  0  0  0  0
  -31.3147   16.9760  -14.3956 O   0  0  0  0  0  0  0  0  0  0  0  0
  -31.5486   17.8853  -16.4885 N   0  0  0  0  0  0  0  0  0  0  0  0
  -30.8398   17.9067  -17.6409 C   0  0  0  0  0  0  0  0  0  0  0  0
  -31.1619   18.4593  -18.6764 O   0  0  0  0  0  0  0  0  0  0  0  0
  -29.6827   17.1886  -17.4552 N   0  0  0  0  0  0  0  0  0  0  0  0
  -29.3977   15.1675  -16.0344 C   0  0  0  0  0  0  0  0  0  0  0  0
  -28.0610   14.6420  -16.5748 C   0  0  0  0  0  0  0  0  0  0  0  0
  -28.0459   13.1397  -16.6065 C   0  0  0  0  0  0  0  0  0  0  0  0
  -27.2024   12.3830  -15.8934 C   0  0  0  0  0  0  0  0  0  0  0  0
  -32.4465   18.3220  -16.3721 H   0  0  0  0  0  0  0  0  0  0  0  0
  -28.9912   17.1113  -18.1904 H   0  0  0  0  0  0  0  0  0  0  0  0
  2  1  1  1  0  0  0
  2  3  1  0  0  0  0
  2  8  1  0  0  0  0
  2  9  1  0  0  0  0
  3  4  2  0  0  0  0
  3  5  1  0  0  0  0
  5  6  1  0  0  0  0
  5 13  1  0  0  0  0
  6  7  2  0  0  0  0
  6  8  1  0  0  0  0
  8 14  1  0  0  0  0
  9 10  1  0  0  0  0
 10 11  1  0  0  0  0
 11 12  2  0  0  0  0
M  END
>  <CHROM.0>
-60.34761898,-64.32171268,-60.41540209,-42.29924456,-177.03344318,-61.94493874
-66.65619346,-57.37975470,-168.76280866

>  <CHROM.1>
-55.73757060,-174.07644601,-117.23552104,-29.70075118,16.29285630,-16.40315210
2.77034986,0.90102573,-1.28582167

>  <Name>
P24019403

>  <RI>
0

>  <Rbt.Current_Directory>
/home/fstefaniak/projects/zuza/docking/adenine/4TZX

>  <Rbt.Executable>
rbdock ($Id: //depot/dev/client3/rdock/2013.1/src/exe/rbdock.cxx#4 $)

>  <Rbt.Library>
libRbt.so (2013.1, Build901 2013/11/27)

>  <Rbt.Parameter_File>
/home/fstefaniak/progs/rDock//data/scripts/dock_solv.prm

>  <Rbt.Receptor>
4tzx.prm

>  <SCORE>
-40.541

>  <SCORE.INTER>
-20.3911

>  <SCORE.INTER.CONST>
1

>  <SCORE.INTER.POLAR>
-1.93669

>  <SCORE.INTER.ROT>
3

>  <SCORE.INTER.SOLV>
12.4674

>  <SCORE.INTER.VDW>
-16.8942

>  <SCORE.INTER.norm>
-1.69925

>  <SCORE.INTRA>
1.04125

>  <SCORE.INTRA.DIHEDRAL>
0.220798

>  <SCORE.INTRA.DIHEDRAL.0>
0.0492842

>  <SCORE.INTRA.POLAR>
0

>  <SCORE.INTRA.POLAR.0>
0

>  <SCORE.INTRA.REPUL>
0

>  <SCORE.INTRA.REPUL.0>
0

>  <SCORE.INTRA.SOLV>
-0.517927

>  <SCORE.INTRA.SOLV.lig_0>
-17.1227

>  <SCORE.INTRA.VDW>
1.18982

>  <SCORE.INTRA.VDW.0>
-0.649006

>  <SCORE.INTRA.norm>
0.086771

>  <SCORE.RESTR>
0

>  <SCORE.RESTR.CAVITY>
0

>  <SCORE.RESTR.norm>
0

>  <SCORE.SYSTEM>
-21.1912

>  <SCORE.SYSTEM.CONST>
0

>  <SCORE.SYSTEM.DIHEDRAL>
4.45814

>  <SCORE.SYSTEM.POLAR>
-3.06673

>  <SCORE.SYSTEM.SOLV>
0.00971341

>  <SCORE.SYSTEM.VDW>
-5.39429

>  <SCORE.SYSTEM.norm>
-1.76593

>  <SCORE.heavy>
12

>  <SCORE.norm>
-3.37841

$$$$
P24071195
 OpenBabel12072022113D
libRbt.so/2013.1/901 2013/11/27
 16 16  0  0  0  0  0  0  0  0999 V2000
  -25.8593   13.5143  -16.9568 C   0  0  0  0  0  0  0  0  0  0  0  0
  -25.4460   14.7643  -16.4891 C   0  0  0  0  0  0  0  0  0  0  0  0
  -26.3906   15.7311  -16.1505 C   0  0  0  0  0  0  0  0  0  0  0  0
  -27.7572   15.4848  -16.2970 C   0  0  0  0  0  0  0  0  0  0  0  0
  -28.1543   14.2466  -16.8161 C   0  0  0  0  0  0  0  0  0  0  0  0
  -27.2233   13.2415  -17.1100 C   0  0  0  0  0  0  0  0  0  0  0  0
  -27.7282   11.8893  -17.4939 C   0  0  0  0  0  0  0  0  0  0  0  0
  -27.6804   11.7315  -18.9681 N   0  3  0  0  0  0  0  0  0  0  0  0
  -28.0483   10.8089  -19.2308 H   0  0  0  0  0  0  0  0  0  0  0  0
  -28.3057   12.4187  -19.4132 H   0  0  0  0  0  0  0  0  0  0  0  0
  -26.7395   11.8503  -19.3503 H   0  0  0  0  0  0  0  0  0  0  0  0
  -28.8054   16.4778  -15.8728 C   0  0  0  0  0  0  0  0  0  0  0  0
  -28.5578   17.1444  -14.8216 O   0  0  0  0  0  0  0  0  0  0  0  0
  -29.8165   16.5736  -16.6350 O   0  5  0  0  0  0  0  0  0  0  0  0
  -25.9235   16.9183  -15.6569 O   0  0  0  0  0  0  0  0  0  0  0  0
  -25.2026   16.6791  -15.0094 H   0  0  0  0  0  0  0  0  0  0  0  0
  1  2  2  0  0  0  0
  1  6  1  0  0  0  0
  2  3  1  0  0  0  0
  3  4  2  0  0  0  0
  3 15  1  0  0  0  0
  4  5  1  0  0  0  0
  4 12  1  0  0  0  0
  5  6  2  0  0  0  0
  6  7  1  0  0  0  0
  7  8  1  0  0  0  0
  8  9  1  0  0  0  0
  8 10  1  0  0  0  0
  8 11  1  0  0  0  0
 12 13  2  0  0  0  0
 12 14  1  0  0  0  0
 15 16  1  0  0  0  0
M  CHG  2   8   1  14  -1
M  END
>  <CHROM.0>
-56.83273197,-58.87733514,-72.36909028,-41.82383194,-57.78819090,-61.26897504
-170.34486437,-59.18245400,-169.11971206

>  <CHROM.1>
-43.20879936,-36.45704431,-83.93615755,-178.71120980,-27.47195171,14.82932408
-16.62243304,-1.43501833,-0.13269802,0.50382624

>  <Name>
P24071195

>  <RI>
0

>  <Rbt.Current_Directory>
/home/fstefaniak/projects/zuza/docking/adenine/4TZX

>  <Rbt.Executable>
rbdock ($Id: //depot/dev/client3/rdock/2013.1/src/exe/rbdock.cxx#4 $)

>  <Rbt.Library>
libRbt.so (2013.1, Build901 2013/11/27)

>  <Rbt.Parameter_File>
/home/fstefaniak/progs/rDock//data/scripts/dock_solv.prm

>  <Rbt.Receptor>
4tzx.prm

>  <SCORE>
-44.0409

>  <SCORE.INTER>
-25.6798

>  <SCORE.INTER.CONST>
1

>  <SCORE.INTER.POLAR>
-3.39134

>  <SCORE.INTER.ROT>
2

>  <SCORE.INTER.SOLV>
19.4895

>  <SCORE.INTER.VDW>
-17.2452

>  <SCORE.INTER.norm>
-2.13998

>  <SCORE.INTRA>
2.08355

>  <SCORE.INTRA.DIHEDRAL>
7.04815

>  <SCORE.INTRA.DIHEDRAL.0>
0.87139

>  <SCORE.INTRA.POLAR>
0.0627215

>  <SCORE.INTRA.POLAR.0>
-0.0627215

>  <SCORE.INTRA.REPUL>
0

>  <SCORE.INTRA.REPUL.0>
0

>  <SCORE.INTRA.SOLV>
-0.946215

>  <SCORE.INTRA.SOLV.lig_0>
-53.693

>  <SCORE.INTRA.VDW>
-1.18067

>  <SCORE.INTRA.VDW.0>
0.455039

>  <SCORE.INTRA.norm>
0.173629

>  <SCORE.RESTR>
0.0106699

>  <SCORE.RESTR.CAVITY>
0.0106699

>  <SCORE.RESTR.norm>
0.00088916

>  <SCORE.SYSTEM>
-20.4554

>  <SCORE.SYSTEM.CONST>
0

>  <SCORE.SYSTEM.DIHEDRAL>
5.29106

>  <SCORE.SYSTEM.POLAR>
-3.06936

>  <SCORE.SYSTEM.SOLV>
0.169584

>  <SCORE.SYSTEM.VDW>
-5.22593

>  <SCORE.SYSTEM.norm>
-1.70461

>  <SCORE.heavy>
12

>  <SCORE.norm>
-3.67008

$$$$
P24071195
 OpenBabel12072022113D
libRbt.so/2013.1/901 2013/11/27
 16 16  0  0  0  0  0  0  0  0999 V2000
  -26.9325   14.0694  -16.6659 C   0  0  0  0  0  0  0  0  0  0  0  0
  -28.2394   13.7579  -16.2827 C   0  0  0  0  0  0  0  0  0  0  0  0
  -29.1227   14.7731  -15.9212 C   0  0  0  0  0  0  0  0  0  0  0  0
  -28.7165   16.1091  -15.9061 C   0  0  0  0  0  0  0  0  0  0  0  0
  -27.3890   16.4007  -16.2419 C   0  0  0  0  0  0  0  0  0  0  0  0
  -26.5017   15.4010  -16.6619 C   0  0  0  0  0  0  0  0  0  0  0  0
  -25.1570   15.8058  -17.1704 C   0  0  0  0  0  0  0  0  0  0  0  0
  -24.6703   16.9920  -16.4243 N   0  3  0  0  0  0  0  0  0  0  0  0
  -23.8293   17.3677  -16.8794 H   0  0  0  0  0  0  0  0  0  0  0  0
  -25.3722   17.7448  -16.4691 H   0  0  0  0  0  0  0  0  0  0  0  0
  -24.4708   16.7895  -15.4421 H   0  0  0  0  0  0  0  0  0  0  0  0
  -29.6632   17.2360  -15.5921 C   0  0  0  0  0  0  0  0  0  0  0  0
  -30.4711   17.0427  -14.6326 O   0  0  0  0  0  0  0  0  0  0  0  0
  -29.5295   18.2830  -16.2980 O   0  5  0  0  0  0  0  0  0  0  0  0
  -30.4007   14.4071  -15.5990 O   0  0  0  0  0  0  0  0  0  0  0  0
  -30.9938   15.0916  -16.0183 H   0  0  0  0  0  0  0  0  0  0  0  0
  1  2  2  0  0  0  0
  1  6  1  0  0  0  0
  2  3  1  0  0  0  0
  3  4  2  0  0  0  0
  3 15  1  0  0  0  0
  4  5  1  0  0  0  0
  4 12  1  0  0  0  0
  5  6  2  0  0  0  0
  6  7  1  0  0  0  0
  7  8  1  0  0  0  0
  8  9  1  0  0  0  0
  8 10  1  0  0  0  0
  8 11  1  0  0  0  0
 12 13  2  0  0  0  0
 12 14  1  0  0  0  0
 15 16  1  0  0  0  0
M  CHG  2   8   1  14  -1
M  END
>  <CHROM.0>
-57.94314578,-56.46372817,-71.67444842,-43.98804969,-174.30721109,-62.54419000
-172.33902438,-63.68333128,-169.36152564

>  <CHROM.1>
-138.69230227,42.18299229,-148.98273808,-170.14030962,-28.08284060,15.92241732
-16.09644338,0.09198561,-0.25754094,-3.05791266

>  <Name>
P24071195

>  <RI>
0

>  <Rbt.Current_Directory>
/home/fstefaniak/projects/zuza/docking/adenine/4TZX

>  <Rbt.Executable>
rbdock ($Id: //depot/dev/client3/rdock/2013.1/src/exe/rbdock.cxx#4 $)

>  <Rbt.Library>
libRbt.so (2013.1, Build901 2013/11/27)

>  <Rbt.Parameter_File>
/home/fstefaniak/progs/rDock//data/scripts/dock_solv.prm

>  <Rbt.Receptor>
4tzx.prm

>  <SCORE>
-43.57

>  <SCORE.INTER>
-26.2344

>  <SCORE.INTER.CONST>
1

>  <SCORE.INTER.POLAR>
-5.08498

>  <SCORE.INTER.ROT>
2

>  <SCORE.INTER.SOLV>
28.5465

>  <SCORE.INTER.VDW>
-14.9885

>  <SCORE.INTER.norm>
-2.1862

>  <SCORE.INTRA>
3.23426

>  <SCORE.INTRA.DIHEDRAL>
7.43471

>  <SCORE.INTRA.DIHEDRAL.0>
0.87139

>  <SCORE.INTRA.POLAR>
0.0627215

>  <SCORE.INTRA.POLAR.0>
-0.0627215

>  <SCORE.INTRA.REPUL>
0

>  <SCORE.INTRA.REPUL.0>
0

>  <SCORE.INTRA.SOLV>
-0.118833

>  <SCORE.INTRA.SOLV.lig_0>
-53.693

>  <SCORE.INTRA.VDW>
-0.636927

>  <SCORE.INTRA.VDW.0>
0.455039

>  <SCORE.INTRA.norm>
0.269522

>  <SCORE.RESTR>
0

>  <SCORE.RESTR.CAVITY>
0

>  <SCORE.RESTR.norm>
0

>  <SCORE.SYSTEM>
-20.5699

>  <SCORE.SYSTEM.CONST>
0

>  <SCORE.SYSTEM.DIHEDRAL>
4.96741

>  <SCORE.SYSTEM.POLAR>
-3.01452

>  <SCORE.SYSTEM.SOLV>
-0.0318507

>  <SCORE.SYSTEM.VDW>
-5.31005

>  <SCORE.SYSTEM.norm>
-1.71416

>  <SCORE.heavy>
12

>  <SCORE.norm>
-3.63084

$$$$
P24071195
 OpenBabel12072022113D
libRbt.so/2013.1/901 2013/11/27
 16 16  0  0  0  0  0  0  0  0999 V2000
  -27.0189   14.0800  -16.6196 C   0  0  0  0  0  0  0  0  0  0  0  0
  -28.3349   13.7940  -16.2476 C   0  0  0  0  0  0  0  0  0  0  0  0
  -29.1966   14.8249  -15.8783 C   0  0  0  0  0  0  0  0  0  0  0  0
  -28.7600   16.1507  -15.8444 C   0  0  0  0  0  0  0  0  0  0  0  0
  -27.4242   16.4158  -16.1693 C   0  0  0  0  0  0  0  0  0  0  0  0
  -26.5576   15.4011  -16.5967 C   0  0  0  0  0  0  0  0  0  0  0  0
  -25.2011   15.7810  -17.0927 C   0  0  0  0  0  0  0  0  0  0  0  0
  -24.7552   17.0341  -16.4359 N   0  3  0  0  0  0  0  0  0  0  0  0
  -23.9167   17.3944  -16.9079 H   0  0  0  0  0  0  0  0  0  0  0  0
  -25.4745   17.7629  -16.5494 H   0  0  0  0  0  0  0  0  0  0  0  0
  -24.5659   16.9145  -15.4383 H   0  0  0  0  0  0  0  0  0  0  0  0
  -29.6823   17.2953  -15.5216 C   0  0  0  0  0  0  0  0  0  0  0  0
  -30.4340   17.1454  -14.5102 O   0  0  0  0  0  0  0  0  0  0  0  0
  -29.5853   18.3126  -16.2754 O   0  5  0  0  0  0  0  0  0  0  0  0
  -30.4846   14.4845  -15.5677 O   0  0  0  0  0  0  0  0  0  0  0  0
  -30.9515   15.3428  -15.3642 H   0  0  0  0  0  0  0  0  0  0  0  0
  1  2  2  0  0  0  0
  1  6  1  0  0  0  0
  2  3  1  0  0  0  0
  3  4  2  0  0  0  0
  3 15  1  0  0  0  0
  4  5  1  0  0  0  0
  4 12  1  0  0  0  0
  5  6  2  0  0  0  0
  6  7  1  0  0  0  0
  7  8  1  0  0  0  0
  8  9  1  0  0  0  0
  8 10  1  0  0  0  0
  8 11  1  0  0  0  0
 12 13  2  0  0  0  0
 12 14  1  0  0  0  0
 15 16  1  0  0  0  0
M  CHG  2   8   1  14  -1
M  END
>  <CHROM.0>
-58.96605665,-60.92516561,-61.30415478,-42.52090169,-56.87829167,59.53424334
-65.62810455,-59.40937014,-168.86543391

>  <CHROM.1>
-177.99908455,46.99970946,-155.23504746,-168.75869955,-28.13564663,15.96226469
-16.04146471,0.10985379,-0.26565810,-3.05033084

>  <Name>
P24071195

>  <RI>
0

>  <Rbt.Current_Directory>
/home/fstefaniak/projects/zuza/docking/adenine/4TZX

>  <Rbt.Executable>
rbdock ($Id: //depot/dev/client3/rdock/2013.1/src/exe/rbdock.cxx#4 $)

>  <Rbt.Library>
libRbt.so (2013.1, Build901 2013/11/27)

>  <Rbt.Parameter_File>
/home/fstefaniak/progs/rDock//data/scripts/dock_solv.prm

>  <Rbt.Receptor>
4tzx.prm

>  <SCORE>
-43.5071

>  <SCORE.INTER>
-27.0899

>  <SCORE.INTER.CONST>
1

>  <SCORE.INTER.POLAR>
-4.86012

>  <SCORE.INTER.ROT>
2

>  <SCORE.INTER.SOLV>
28.2919

>  <SCORE.INTER.VDW>
-16.2235

>  <SCORE.INTER.norm>
-2.25749

>  <SCORE.INTRA>
3.55273

>  <SCORE.INTRA.DIHEDRAL>
6.50115

>  <SCORE.INTRA.DIHEDRAL.0>
0.87139

>  <SCORE.INTRA.POLAR>
0.0627215

>  <SCORE.INTRA.POLAR.0>
-0.0627215

>  <SCORE.INTRA.REPUL>
0

>  <SCORE.INTRA.REPUL.0>
0

>  <SCORE.INTRA.SOLV>
-0.00325722

>  <SCORE.INTRA.SOLV.lig_0>
-53.693

>  <SCORE.INTRA.VDW>
0.0905355

>  <SCORE.INTRA.VDW.0>
0.455039

>  <SCORE.INTRA.norm>
0.296061

>  <SCORE.RESTR>
0

>  <SCORE.RESTR.CAVITY>
0

>  <SCORE.RESTR.norm>
0

>  <SCORE.SYSTEM>
-19.9699

>  <SCORE.SYSTEM.CONST>
0

>  <SCORE.SYSTEM.DIHEDRAL>
4.24348

>  <SCORE.SYSTEM.POLAR>
-3.07118

>  <SCORE.SYSTEM.SOLV>
0.067615

>  <SCORE.SYSTEM.VDW>
-4.51305

>  <SCORE.SYSTEM.norm>
-1.66416

>  <SCORE.heavy>
12

>  <SCORE.norm>
-3.62559

$$$$
P24135333
 OpenBabel12072022113D
libRbt.so/2013.1/901 2013/11/27
 12 12  0  0  0  0  0  0  0  0999 V2000
  -29.5328   17.2522  -16.8021 C   0  0  0  0  0  0  0  0  0  0  0  0
  -30.8624   16.8005  -16.3820 N   0  0  0  0  0  0  0  0  0  0  0  0
  -31.5835   17.9451  -15.8261 C   0  0  0  0  0  0  0  0  0  0  0  0
  -31.7729   18.9826  -16.8422 N   0  0  0  0  0  0  0  0  0  0  0  0
  -30.4800   19.3712  -17.4257 C   0  0  0  0  0  0  0  0  0  0  0  0
  -29.6578   18.2414  -17.8717 N   0  0  0  0  0  0  0  0  0  0  0  0
  -30.3650   17.5842  -18.9721 O   0  0  0  0  0  0  0  0  0  0  0  0
  -32.6218   18.4355  -17.8934 O   0  0  0  0  0  0  0  0  0  0  0  0
  -30.6357   15.8944  -15.2626 O   0  0  0  0  0  0  0  0  0  0  0  0
  -29.6579   16.9946  -19.3200 H   0  0  0  0  0  0  0  0  0  0  0  0
  -32.5496   19.1300  -18.5760 H   0  0  0  0  0  0  0  0  0  0  0  0
  -30.8915   15.0392  -15.6595 H   0  0  0  0  0  0  0  0  0  0  0  0
  1  2  1  0  0  0  0
  1  6  1  0  0  0  0
  2  3  1  0  0  0  0
  2  9  1  0  0  0  0
  3  4  1  0  0  0  0
  4  5  1  0  0  0  0
  4  8  1  0  0  0  0
  5  6  1  0  0  0  0
  6  7  1  0  0  0  0
  7 10  1  0  0  0  0
  8 11  1  0  0  0  0
  9 12  1  0  0  0  0
M  END
>  <CHROM.0>
-59.46518411,61.72631776,-66.25868277,-42.18268598,-56.51494035,-58.96750091
-68.59946349,-58.51841810,-167.94007175

>  <CHROM.1>
-111.02814455,-170.22273354,-73.83333929,-30.85547419,17.79339447,-17.06437091
-1.38138368,0.53409224,-0.90817471

>  <Name>
P24135333

>  <RI>
0

>  <Rbt.Current_Directory>
/home/fstefaniak/projects/zuza/docking/adenine/4TZX

>  <Rbt.Executable>
rbdock ($Id: //depot/dev/client3/rdock/2013.1/src/exe/rbdock.cxx#4 $)

>  <Rbt.Library>
libRbt.so (2013.1, Build901 2013/11/27)

>  <Rbt.Parameter_File>
/home/fstefaniak/progs/rDock//data/scripts/dock_solv.prm

>  <Rbt.Receptor>
4tzx.prm

>  <SCORE>
-48.4809

>  <SCORE.INTER>
-30.4117

>  <SCORE.INTER.CONST>
1

>  <SCORE.INTER.POLAR>
-5.30514

>  <SCORE.INTER.ROT>
0

>  <SCORE.INTER.SOLV>
18.7915

>  <SCORE.INTER.VDW>
-12.4545

>  <SCORE.INTER.norm>
-3.37908

>  <SCORE.INTRA>
2.14061

>  <SCORE.INTRA.DIHEDRAL>
-0.739125

>  <SCORE.INTRA.DIHEDRAL.0>
1.60573

>  <SCORE.INTRA.POLAR>
0.840788

>  <SCORE.INTRA.POLAR.0>
-0.840788

>  <SCORE.INTRA.REPUL>
0

>  <SCORE.INTRA.REPUL.0>
0

>  <SCORE.INTRA.SOLV>
-0.216568

>  <SCORE.INTRA.SOLV.lig_0>
-28.2115

>  <SCORE.INTRA.VDW>
-0.240227

>  <SCORE.INTRA.VDW.0>
1.20758

>  <SCORE.INTRA.norm>
0.237845

>  <SCORE.RESTR>
0

>  <SCORE.RESTR.CAVITY>
0

>  <SCORE.RESTR.norm>
0

>  <SCORE.SYSTEM>
-20.2098

>  <SCORE.SYSTEM.CONST>
0

>  <SCORE.SYSTEM.DIHEDRAL>
4.77178

>  <SCORE.SYSTEM.POLAR>
-3.07207

>  <SCORE.SYSTEM.SOLV>
0.247153

>  <SCORE.SYSTEM.VDW>
-4.90591

>  <SCORE.SYSTEM.norm>
-2.24553

>  <SCORE.heavy>
9

>  <SCORE.norm>
-5.38677

$$$$
P24135333
 OpenBabel12072022113D
libRbt.so/2013.1/901 2013/11/27
 12 12  0  0  0  0  0  0  0  0999 V2000
  -29.5059   17.2521  -16.8287 C   0  0  0  0  0  0  0  0  0  0  0  0
  -30.8313   16.8108  -16.3847 N   0  0  0  0  0  0  0  0  0  0  0  0
  -31.5332   17.9611  -15.8161 C   0  0  0  0  0  0  0  0  0  0  0  0
  -31.7328   19.0000  -16.8286 N   0  0  0  0  0  0  0  0  0  0  0  0
  -30.4475   19.3785  -17.4354 C   0  0  0  0  0  0  0  0  0  0  0  0
  -29.6424   18.2422  -17.8960 N   0  0  0  0  0  0  0  0  0  0  0  0
  -30.3744   17.5906  -18.9834 O   0  0  0  0  0  0  0  0  0  0  0  0
  -32.6047   18.4596  -17.8643 O   0  0  0  0  0  0  0  0  0  0  0  0
  -30.5916   15.9029  -15.2694 O   0  0  0  0  0  0  0  0  0  0  0  0
  -29.7058   16.9370  -19.2903 H   0  0  0  0  0  0  0  0  0  0  0  0
  -32.5154   19.1386  -18.5605 H   0  0  0  0  0  0  0  0  0  0  0  0
  -30.8901   15.0548  -15.6513 H   0  0  0  0  0  0  0  0  0  0  0  0
  1  2  1  0  0  0  0
  1  6  1  0  0  0  0
  2  3  1  0  0  0  0
  2  9  1  0  0  0  0
  3  4  1  0  0  0  0
  4  5  1  0  0  0  0
  4  8  1  0  0  0  0
  5  6  1  0  0  0  0
  6  7  1  0  0  0  0
  7 10  1  0  0  0  0
  8 11  1  0  0  0  0
  9 12  1  0  0  0  0
M  END
>  <CHROM.0>
-59.59198787,61.81077853,-71.31307313,-43.16604026,-56.21418830,-61.33520181
-169.92128620,-55.27968578,-169.63594647

>  <CHROM.1>
-112.88677290,-168.38604138,-68.84916333,-30.82906237,17.80313104,-17.06678645
-1.37032451,0.55147287,-0.91343942

>  <Name>
P24135333

>  <RI>
0

>  <Rbt.Current_Directory>
/home/fstefaniak/projects/zuza/docking/adenine/4TZX

>  <Rbt.Executable>
rbdock ($Id: //depot/dev/client3/rdock/2013.1/src/exe/rbdock.cxx#4 $)

>  <Rbt.Library>
libRbt.so (2013.1, Build901 2013/11/27)

>  <Rbt.Parameter_File>
/home/fstefaniak/progs/rDock//data/scripts/dock_solv.prm

>  <Rbt.Receptor>
4tzx.prm

>  <SCORE>
-47.958

>  <SCORE.INTER>
-30.679

>  <SCORE.INTER.CONST>
1

>  <SCORE.INTER.POLAR>
-5.3609

>  <SCORE.INTER.ROT>
0

>  <SCORE.INTER.SOLV>
18.7328

>  <SCORE.INTER.VDW>
-12.4273

>  <SCORE.INTER.norm>
-3.40878

>  <SCORE.INTRA>
2.3544

>  <SCORE.INTRA.DIHEDRAL>
-0.752806

>  <SCORE.INTRA.DIHEDRAL.0>
1.60573

>  <SCORE.INTRA.POLAR>
0.840788

>  <SCORE.INTRA.POLAR.0>
-0.840788

>  <SCORE.INTRA.REPUL>
0

>  <SCORE.INTRA.REPUL.0>
0

>  <SCORE.INTRA.SOLV>
-0.201642

>  <SCORE.INTRA.SOLV.lig_0>
-28.2115

>  <SCORE.INTRA.VDW>
-0.0270542

>  <SCORE.INTRA.VDW.0>
1.20758

>  <SCORE.INTRA.norm>
0.2616

>  <SCORE.RESTR>
0

>  <SCORE.RESTR.CAVITY>
0

>  <SCORE.RESTR.norm>
0

>  <SCORE.SYSTEM>
-19.6333

>  <SCORE.SYSTEM.CONST>
0

>  <SCORE.SYSTEM.DIHEDRAL>
5.08343

>  <SCORE.SYSTEM.POLAR>
-3.03433

>  <SCORE.SYSTEM.SOLV>
0.22422

>  <SCORE.SYSTEM.VDW>
-4.74369

>  <SCORE.SYSTEM.norm>
-2.18148

>  <SCORE.heavy>
9

>  <SCORE.norm>
-5.32866

$$$$
P24135333
 OpenBabel12072022113D
libRbt.so/2013.1/901 2013/11/27
 12 12  0  0  0  0  0  0  0  0999 V2000
  -29.5437   17.2793  -16.7940 C   0  0  0  0  0  0  0  0  0  0  0  0
  -30.8725   16.8178  -16.3821 N   0  0  0  0  0  0  0  0  0  0  0  0
  -31.6070   17.9580  -15.8347 C   0  0  0  0  0  0  0  0  0  0  0  0
  -31.7978   18.9909  -16.8550 N   0  0  0  0  0  0  0  0  0  0  0  0
  -30.5040   19.3886  -17.4305 C   0  0  0  0  0  0  0  0  0  0  0  0
  -29.6693   18.2644  -17.8674 N   0  0  0  0  0  0  0  0  0  0  0  0
  -30.3632   17.5982  -18.9708 O   0  0  0  0  0  0  0  0  0  0  0  0
  -32.6346   18.4338  -17.9107 O   0  0  0  0  0  0  0  0  0  0  0  0
  -30.6464   15.9168  -15.2585 O   0  0  0  0  0  0  0  0  0  0  0  0
  -29.6362   17.0470  -19.3401 H   0  0  0  0  0  0  0  0  0  0  0  0
  -32.5518   19.1202  -18.6003 H   0  0  0  0  0  0  0  0  0  0  0  0
  -30.9442   15.0671  -15.6373 H   0  0  0  0  0  0  0  0  0  0  0  0
  1  2  1  0  0  0  0
  1  6  1  0  0  0  0
  2  3  1  0  0  0  0
  2  9  1  0  0  0  0
  3  4  1  0  0  0  0
  4  5  1  0  0  0  0
  4  8  1  0  0  0  0
  5  6  1  0  0  0  0
  6  7  1  0  0  0  0
  7 10  1  0  0  0  0
  8 11  1  0  0  0  0
  9 12  1  0  0  0  0
M  END
>  <CHROM.0>
-60.45948876,58.38132139,-64.79813308,-41.75628353,-54.17418358,-61.84553126
-65.99928050,58.27282975,-168.95560093

>  <CHROM.1>
-114.34339820,-169.36332470,-76.52753282,-30.86914887,17.80903457,-17.06738523
-1.38506296,0.52235735,-0.91060169

>  <Name>
P24135333

>  <RI>
0

>  <Rbt.Current_Directory>
/home/fstefaniak/projects/zuza/docking/adenine/4TZX

>  <Rbt.Executable>
rbdock ($Id: //depot/dev/client3/rdock/2013.1/src/exe/rbdock.cxx#4 $)

>  <Rbt.Library>
libRbt.so (2013.1, Build901 2013/11/27)

>  <Rbt.Parameter_File>
/home/fstefaniak/progs/rDock//data/scripts/dock_solv.prm

>  <Rbt.Receptor>
4tzx.prm

>  <SCORE>
-47.5366

>  <SCORE.INTER>
-30.3431

>  <SCORE.INTER.CONST>
1

>  <SCORE.INTER.POLAR>
-5.32924

>  <SCORE.INTER.ROT>
0

>  <SCORE.INTER.SOLV>
18.7891

>  <SCORE.INTER.VDW>
-12.3276

>  <SCORE.INTER.norm>
-3.37145

>  <SCORE.INTRA>
2.16117

>  <SCORE.INTRA.DIHEDRAL>
-0.657347

>  <SCORE.INTRA.DIHEDRAL.0>
1.60573

>  <SCORE.INTRA.POLAR>
0.840788

>  <SCORE.INTRA.POLAR.0>
-0.840788

>  <SCORE.INTRA.REPUL>
0

>  <SCORE.INTRA.REPUL.0>
0

>  <SCORE.INTRA.SOLV>
-0.217117

>  <SCORE.INTRA.SOLV.lig_0>
-28.2115

>  <SCORE.INTRA.VDW>
-0.260277

>  <SCORE.INTRA.VDW.0>
1.20758

>  <SCORE.INTRA.norm>
0.24013

>  <SCORE.RESTR>
0

>  <SCORE.RESTR.CAVITY>
0

>  <SCORE.RESTR.norm>
0

>  <SCORE.SYSTEM>
-19.3547

>  <SCORE.SYSTEM.CONST>
0

>  <SCORE.SYSTEM.DIHEDRAL>
4.60384

>  <SCORE.SYSTEM.POLAR>
-3.07897

>  <SCORE.SYSTEM.SOLV>
0.0935927

>  <SCORE.SYSTEM.VDW>
-4.20569

>  <SCORE.SYSTEM.norm>
-2.15052

>  <SCORE.heavy>
9

>  <SCORE.norm>
-5.28184

$$$$
P24145078
 OpenBabel12072022113D
libRbt.so/2013.1/901 2013/11/27
 13 13  0  0  0  0  0  0  0  0999 V2000
  -28.5423   15.8754  -16.4362 C   0  0  0  0  0  0  0  0  0  0  0  0
  -29.1099   17.2731  -16.3932 C   0  0  0  0  0  0  0  0  0  0  0  0
  -29.9093   17.2236  -15.1023 C   0  0  2  0  0  0  0  0  0  0  0  0
  -30.4571   15.8882  -15.0277 O   0  0  0  0  0  0  0  0  0  0  0  0
  -29.7014   15.0490  -15.9168 C   0  0  0  0  0  0  0  0  0  0  0  0
  -31.0174   18.2689  -14.9460 C   0  0  0  0  0  0  0  0  0  0  0  0
  -31.9322   18.3112  -16.0734 N   0  0  0  0  0  0  0  0  0  0  0  0
  -31.5990   18.9148  -17.2456 C   0  0  0  0  0  0  0  0  0  0  0  0
  -30.5603   19.5161  -17.4716 O   0  0  0  0  0  0  0  0  0  0  0  0
  -32.5707   18.7874  -18.1829 N   0  0  0  0  0  0  0  0  0  0  0  0
  -32.5838   17.5411  -16.1376 H   0  0  0  0  0  0  0  0  0  0  0  0
  -32.7313   19.5954  -18.7666 H   0  0  0  0  0  0  0  0  0  0  0  0
  -32.5219   17.9087  -18.6835 H   0  0  0  0  0  0  0  0  0  0  0  0
  1  2  1  0  0  0  0
  1  5  1  0  0  0  0
  2  3  1  0  0  0  0
  3  4  1  0  0  0  0
  3  6  1  6  0  0  0
  4  5  1  0  0  0  0
  6  7  1  0  0  0  0
  7  8  1  0  0  0  0
  7 11  1  0  0  0  0
  8  9  2  0  0  0  0
  8 10  1  0  0  0  0
 10 12  1  0  0  0  0
 10 13  1  0  0  0  0
M  END
>  <CHROM.0>
-61.59396307,-61.62518531,-75.02684216,-43.21821911,-57.06918479,-66.02871726
-171.43760711,61.80869108,-169.08826633

>  <CHROM.1>
52.04420527,-77.29528983,-3.02204047,141.23214677,-30.57170871,17.51567547
-16.30643814,-0.84857562,0.59931068,-0.96529968

>  <Name>
P24145078

>  <RI>
0

>  <Rbt.Current_Directory>
/home/fstefaniak/projects/zuza/docking/adenine/4TZX

>  <Rbt.Executable>
rbdock ($Id: //depot/dev/client3/rdock/2013.1/src/exe/rbdock.cxx#4 $)

>  <Rbt.Library>
libRbt.so (2013.1, Build901 2013/11/27)

>  <Rbt.Parameter_File>
/home/fstefaniak/progs/rDock//data/scripts/dock_solv.prm

>  <Rbt.Receptor>
4tzx.prm

>  <SCORE>
-54.4558

>  <SCORE.INTER>
-35.4085

>  <SCORE.INTER.CONST>
1

>  <SCORE.INTER.POLAR>
-5.78318

>  <SCORE.INTER.ROT>
4

>  <SCORE.INTER.SOLV>
13.4069

>  <SCORE.INTER.VDW>
-15.0641

>  <SCORE.INTER.norm>
-3.54085

>  <SCORE.INTRA>
0.511911

>  <SCORE.INTRA.DIHEDRAL>
-0.255869

>  <SCORE.INTRA.DIHEDRAL.0>
1.81837

>  <SCORE.INTRA.POLAR>
0

>  <SCORE.INTRA.POLAR.0>
0

>  <SCORE.INTRA.REPUL>
0

>  <SCORE.INTRA.REPUL.0>
0

>  <SCORE.INTRA.SOLV>
0.240767

>  <SCORE.INTRA.SOLV.lig_0>
-14.0981

>  <SCORE.INTRA.VDW>
0.519462

>  <SCORE.INTRA.VDW.0>
-0.912962

>  <SCORE.INTRA.norm>
0.0511911

>  <SCORE.RESTR>
0

>  <SCORE.RESTR.CAVITY>
0

>  <SCORE.RESTR.norm>
0

>  <SCORE.SYSTEM>
-19.5592

>  <SCORE.SYSTEM.CONST>
0

>  <SCORE.SYSTEM.DIHEDRAL>
5.4666

>  <SCORE.SYSTEM.POLAR>
-2.98747

>  <SCORE.SYSTEM.SOLV>
-0.0312253

>  <SCORE.SYSTEM.VDW>
-4.89305

>  <SCORE.SYSTEM.norm>
-1.95592

>  <SCORE.heavy>
10

>  <SCORE.norm>
-5.44558

$$$$
P24145078
 OpenBabel12072022113D
libRbt.so/2013.1/901 2013/11/27
 13 13  0  0  0  0  0  0  0  0999 V2000
  -28.4849   15.8727  -16.3538 C   0  0  0  0  0  0  0  0  0  0  0  0
  -29.0540   17.2695  -16.3022 C   0  0  0  0  0  0  0  0  0  0  0  0
  -29.9283   17.1827  -15.0630 C   0  0  2  0  0  0  0  0  0  0  0  0
  -30.4797   15.8467  -15.0612 O   0  0  0  0  0  0  0  0  0  0  0  0
  -29.6728   15.0331  -15.9290 C   0  0  0  0  0  0  0  0  0  0  0  0
  -31.0436   18.2248  -14.9410 C   0  0  0  0  0  0  0  0  0  0  0  0
  -31.9367   18.2492  -16.0862 N   0  0  0  0  0  0  0  0  0  0  0  0
  -31.5959   18.8666  -17.2489 C   0  0  0  0  0  0  0  0  0  0  0  0
  -30.5422   19.4423  -17.4720 O   0  0  0  0  0  0  0  0  0  0  0  0
  -32.5786   18.7861  -18.1800 N   0  0  0  0  0  0  0  0  0  0  0  0
  -32.5670   17.4630  -16.1665 H   0  0  0  0  0  0  0  0  0  0  0  0
  -32.7170   19.6081  -18.7497 H   0  0  0  0  0  0  0  0  0  0  0  0
  -32.5627   17.9143  -18.6946 H   0  0  0  0  0  0  0  0  0  0  0  0
  1  2  1  0  0  0  0
  1  5  1  0  0  0  0
  2  3  1  0  0  0  0
  3  4  1  0  0  0  0
  3  6  1  6  0  0  0
  4  5  1  0  0  0  0
  6  7  1  0  0  0  0
  7  8  1  0  0  0  0
  7 11  1  0  0  0  0
  8  9  2  0  0  0  0
  8 10  1  0  0  0  0
 10 12  1  0  0  0  0
 10 13  1  0  0  0  0
M  END
>  <CHROM.0>
-60.00815387,-57.28925878,-67.19676369,48.49232304,-178.41019489,-175.62022448
-62.96062815,-68.22669730,-168.79927038

>  <CHROM.1>
55.40340663,-78.84719247,0.60025221,141.58127270,-30.56365664,17.48214052
-16.29189403,-0.86924731,0.53279898,-0.92030549

>  <Name>
P24145078

>  <RI>
0

>  <Rbt.Current_Directory>
/home/fstefaniak/projects/zuza/docking/adenine/4TZX

>  <Rbt.Executable>
rbdock ($Id: //depot/dev/client3/rdock/2013.1/src/exe/rbdock.cxx#4 $)

>  <Rbt.Library>
libRbt.so (2013.1, Build901 2013/11/27)

>  <Rbt.Parameter_File>
/home/fstefaniak/progs/rDock//data/scripts/dock_solv.prm

>  <Rbt.Receptor>
4tzx.prm

>  <SCORE>
-53.0089

>  <SCORE.INTER>
-35.4479

>  <SCORE.INTER.CONST>
1

>  <SCORE.INTER.POLAR>
-5.72345

>  <SCORE.INTER.ROT>
4

>  <SCORE.INTER.SOLV>
13.3579

>  <SCORE.INTER.VDW>
-15.2731

>  <SCORE.INTER.norm>
-3.54479

>  <SCORE.INTRA>
0.357535

>  <SCORE.INTRA.DIHEDRAL>
-0.395868

>  <SCORE.INTRA.DIHEDRAL.0>
1.81837

>  <SCORE.INTRA.POLAR>
0

>  <SCORE.INTRA.POLAR.0>
0

>  <SCORE.INTRA.REPUL>
0

>  <SCORE.INTRA.REPUL.0>
0

>  <SCORE.INTRA.SOLV>
0.224174

>  <SCORE.INTRA.SOLV.lig_0>
-14.0981

>  <SCORE.INTRA.VDW>
0.443382

>  <SCORE.INTRA.VDW.0>
-0.912962

>  <SCORE.INTRA.norm>
0.0357535

>  <SCORE.RESTR>
0

>  <SCORE.RESTR.CAVITY>
0

>  <SCORE.RESTR.norm>
0

>  <SCORE.SYSTEM>
-17.9186

>  <SCORE.SYSTEM.CONST>
0

>  <SCORE.SYSTEM.DIHEDRAL>
4.00159

>  <SCORE.SYSTEM.POLAR>
-2.47579

>  <SCORE.SYSTEM.SOLV>
-0.172478

>  <SCORE.SYSTEM.VDW>
-4.96944

>  <SCORE.SYSTEM.norm>
-1.79186

>  <SCORE.heavy>
10

>  <SCORE.norm>
-5.30089

$$$$
P24145078
 OpenBabel12072022113D
libRbt.so/2013.1/901 2013/11/27
 13 13  0  0  0  0  0  0  0  0999 V2000
  -31.1118   19.4500  -18.1741 C   0  0  0  0  0  0  0  0  0  0  0  0
  -31.2487   18.5669  -16.9580 C   0  0  0  0  0  0  0  0  0  0  0  0
  -29.9189   17.8329  -16.9793 C   0  0  2  0  0  0  0  0  0  0  0  0
  -29.6069   17.6209  -18.3745 O   0  0  0  0  0  0  0  0  0  0  0  0
  -30.4015   18.5337  -19.1499 C   0  0  0  0  0  0  0  0  0  0  0  0
  -29.8569   16.5117  -16.2076 C   0  0  0  0  0  0  0  0  0  0  0  0
  -30.6681   16.5099  -15.0028 N   0  0  0  0  0  0  0  0  0  0  0  0
  -30.7336   17.5910  -14.1803 C   0  0  0  0  0  0  0  0  0  0  0  0
  -31.5725   18.4773  -14.2279 O   0  0  0  0  0  0  0  0  0  0  0  0
  -29.7347   17.5994  -13.2632 N   0  0  0  0  0  0  0  0  0  0  0  0
  -31.4868   15.9176  -15.0271 H   0  0  0  0  0  0  0  0  0  0  0  0
  -28.9352   17.0201  -13.4741 H   0  0  0  0  0  0  0  0  0  0  0  0
  -29.5065   18.5308  -12.9384 H   0  0  0  0  0  0  0  0  0  0  0  0
  1  2  1  0  0  0  0
  1  5  1  0  0  0  0
  2  3  1  0  0  0  0
  3  4  1  0  0  0  0
  3  6  1  1  0  0  0
  4  5  1  0  0  0  0
  6  7  1  0  0  0  0
  7  8  1  0  0  0  0
  7 11  1  0  0  0  0
  8  9  2  0  0  0  0
  8 10  1  0  0  0  0
 10 12  1  0  0  0  0
 10 13  1  0  0  0  0
M  END
>  <CHROM.0>
-57.82149086,-176.00483764,-44.34557198,-42.86093733,-57.08897525,-59.49896130
-63.11745206,-58.49017100,-168.88151625

>  <CHROM.1>
-34.61886872,-40.59230569,93.41299176,19.00258695,-30.47810874,17.86369870
-16.22644580,1.53323320,0.91941559,-1.33658633

>  <Name>
P24145078

>  <RI>
0

>  <Rbt.Current_Directory>
/home/fstefaniak/projects/zuza/docking/adenine/4TZX

>  <Rbt.Executable>
rbdock ($Id: //depot/dev/client3/rdock/2013.1/src/exe/rbdock.cxx#4 $)

>  <Rbt.Library>
libRbt.so (2013.1, Build901 2013/11/27)

>  <Rbt.Parameter_File>
/home/fstefaniak/progs/rDock//data/scripts/dock_solv.prm

>  <Rbt.Receptor>
4tzx.prm

>  <SCORE>
-52.6684

>  <SCORE.INTER>
-34.9264

>  <SCORE.INTER.CONST>
1

>  <SCORE.INTER.POLAR>
-4.52957

>  <SCORE.INTER.ROT>
4

>  <SCORE.INTER.SOLV>
13.9295

>  <SCORE.INTER.VDW>
-19.0955

>  <SCORE.INTER.norm>
-3.49264

>  <SCORE.INTRA>
2.78342

>  <SCORE.INTRA.DIHEDRAL>
2.56436

>  <SCORE.INTRA.DIHEDRAL.0>
1.81837

>  <SCORE.INTRA.POLAR>
0

>  <SCORE.INTRA.POLAR.0>
0

>  <SCORE.INTRA.REPUL>
0

>  <SCORE.INTRA.REPUL.0>
0

>  <SCORE.INTRA.SOLV>
0.0679477

>  <SCORE.INTRA.SOLV.lig_0>
-14.0981

>  <SCORE.INTRA.VDW>
1.46727

>  <SCORE.INTRA.VDW.0>
-0.912962

>  <SCORE.INTRA.norm>
0.278342

>  <SCORE.RESTR>
0

>  <SCORE.RESTR.CAVITY>
0

>  <SCORE.RESTR.norm>
0

>  <SCORE.SYSTEM>
-20.5255

>  <SCORE.SYSTEM.CONST>
0

>  <SCORE.SYSTEM.DIHEDRAL>
5.23688

>  <SCORE.SYSTEM.POLAR>
-3.21102

>  <SCORE.SYSTEM.SOLV>
0.205523

>  <SCORE.SYSTEM.VDW>
-4.79439

>  <SCORE.SYSTEM.norm>
-2.05255

>  <SCORE.heavy>
10

>  <SCORE.norm>
-5.26684

$$$$
P24155541
 OpenBabel12072022113D
libRbt.so/2013.1/901 2013/11/27
 17 18  0  0  0  0  0  0  0  0999 V2000
  -28.3845   11.0540  -15.4415 C   0  0  0  0  0  0  0  0  0  0  0  0
  -27.0895   11.5897  -16.0556 C   0  0  2  0  0  0  0  0  0  0  0  0
  -26.8245   13.0403  -15.6510 C   0  0  1  0  0  0  0  0  0  0  0  0
  -25.3809   13.4655  -15.8972 C   0  0  0  0  0  0  0  0  0  0  0  0
  -25.2202   14.8746  -15.6275 N   0  0  0  0  0  0  0  0  0  0  0  0
  -26.1577   15.8057  -15.9352 C   0  0  0  0  0  0  0  0  0  0  0  0
  -25.9162   17.0051  -15.8782 O   0  0  0  0  0  0  0  0  0  0  0  0
  -27.3859   15.3460  -16.2738 N   0  0  0  0  0  0  0  0  0  0  0  0
  -27.7216   13.9650  -16.4618 C   0  0  1  0  0  0  0  0  0  0  0  0
  -27.7140   13.6529  -17.8591 N   0  0  0  0  0  0  0  0  0  0  0  0
  -27.5540   12.4078  -18.3629 C   0  0  0  0  0  0  0  0  0  0  0  0
  -27.7307   12.1638  -19.5495 O   0  0  0  0  0  0  0  0  0  0  0  0
  -27.1403   11.4489  -17.4978 N   0  0  0  0  0  0  0  0  0  0  0  0
  -24.2947   15.2583  -15.4789 H   0  0  0  0  0  0  0  0  0  0  0  0
  -28.0509   16.0649  -16.5198 H   0  0  0  0  0  0  0  0  0  0  0  0
  -28.0501   14.3379  -18.5202 H   0  0  0  0  0  0  0  0  0  0  0  0
  -27.0550   10.5299  -17.9172 H   0  0  0  0  0  0  0  0  0  0  0  0
  2  1  1  1  0  0  0
  2  3  1  0  0  0  0
  2 13  1  0  0  0  0
  3  4  1  6  0  0  0
  3  9  1  0  0  0  0
  4  5  1  0  0  0  0
  5  6  1  0  0  0  0
  5 14  1  0  0  0  0
  6  7  2  0  0  0  0
  6  8  1  0  0  0  0
  8 15  1  0  0  0  0
  9  8  1  6  0  0  0
  9 10  1  0  0  0  0
 10 11  1  0  0  0  0
 10 16  1  0  0  0  0
 11 12  2  0  0  0  0
 11 13  1  0  0  0  0
 13 17  1  0  0  0  0
M  END
>  <CHROM.0>
-60.21178572,-177.05763799,-65.15959805,-43.48378244,-175.39316084,-66.33916478
-66.56320211,-60.71265808,-169.47768461

>  <CHROM.1>
-26.94112707,13.54314091,-16.67812496,-2.68458882,-1.17133011,-0.69438638

>  <Name>
P24155541

>  <RI>
0

>  <Rbt.Current_Directory>
/home/fstefaniak/projects/zuza/docking/adenine/4TZX

>  <Rbt.Executable>
rbdock ($Id: //depot/dev/client3/rdock/2013.1/src/exe/rbdock.cxx#4 $)

>  <Rbt.Library>
libRbt.so (2013.1, Build901 2013/11/27)

>  <Rbt.Parameter_File>
/home/fstefaniak/progs/rDock//data/scripts/dock_solv.prm

>  <Rbt.Receptor>
4tzx.prm

>  <SCORE>
-38.7729

>  <SCORE.INTER>
-18.2039

>  <SCORE.INTER.CONST>
1

>  <SCORE.INTER.POLAR>
-1.75091

>  <SCORE.INTER.ROT>
0

>  <SCORE.INTER.SOLV>
12.3493

>  <SCORE.INTER.VDW>
-14.0161

>  <SCORE.INTER.norm>
-1.4003

>  <SCORE.INTRA>
0

>  <SCORE.INTRA.DIHEDRAL>
0

>  <SCORE.INTRA.DIHEDRAL.0>
0

>  <SCORE.INTRA.POLAR>
0

>  <SCORE.INTRA.POLAR.0>
0

>  <SCORE.INTRA.REPUL>
0

>  <SCORE.INTRA.REPUL.0>
0

>  <SCORE.INTRA.SOLV>
0

>  <SCORE.INTRA.SOLV.lig_0>
-27.6356

>  <SCORE.INTRA.VDW>
0

>  <SCORE.INTRA.VDW.0>
0

>  <SCORE.INTRA.norm>
0

>  <SCORE.RESTR>
0.652156

>  <SCORE.RESTR.CAVITY>
0.652156

>  <SCORE.RESTR.norm>
0.0501658

>  <SCORE.SYSTEM>
-21.2211

>  <SCORE.SYSTEM.CONST>
0

>  <SCORE.SYSTEM.DIHEDRAL>
4.47975

>  <SCORE.SYSTEM.POLAR>
-3.03088

>  <SCORE.SYSTEM.SOLV>
-0.0389534

>  <SCORE.SYSTEM.VDW>
-5.52474

>  <SCORE.SYSTEM.norm>
-1.63239

>  <SCORE.heavy>
13

>  <SCORE.norm>
-2.98253

$$$$
P24155541
 OpenBabel12072022113D
libRbt.so/2013.1/901 2013/11/27
 17 18  0  0  0  0  0  0  0  0999 V2000
  -27.5540   11.6641  -18.1651 C   0  0  0  0  0  0  0  0  0  0  0  0
  -27.9297   12.5631  -16.9854 C   0  0  2  0  0  0  0  0  0  0  0  0
  -27.2647   13.9367  -17.0814 C   0  0  1  0  0  0  0  0  0  0  0  0
  -27.9188   14.9720  -16.1729 C   0  0  0  0  0  0  0  0  0  0  0  0
  -27.1714   16.2068  -16.2000 N   0  0  0  0  0  0  0  0  0  0  0  0
  -25.8168   16.2590  -16.2546 C   0  0  0  0  0  0  0  0  0  0  0  0
  -25.2056   17.3055  -16.0775 O   0  0  0  0  0  0  0  0  0  0  0  0
  -25.1733   15.1046  -16.5506 N   0  0  0  0  0  0  0  0  0  0  0  0
  -25.8030   13.8224  -16.6717 C   0  0  1  0  0  0  0  0  0  0  0  0
  -25.6281   13.0828  -15.4583 N   0  0  0  0  0  0  0  0  0  0  0  0
  -26.4250   12.0638  -15.0630 C   0  0  0  0  0  0  0  0  0  0  0  0
  -26.1350   11.3485  -14.1127 O   0  0  0  0  0  0  0  0  0  0  0  0
  -27.5881   11.9014  -15.7412 N   0  0  0  0  0  0  0  0  0  0  0  0
  -27.6021   17.0654  -15.8786 H   0  0  0  0  0  0  0  0  0  0  0  0
  -24.1660   15.1748  -16.5589 H   0  0  0  0  0  0  0  0  0  0  0  0
  -24.7570   13.1602  -14.9538 H   0  0  0  0  0  0  0  0  0  0  0  0
  -28.1403   11.1135  -15.4221 H   0  0  0  0  0  0  0  0  0  0  0  0
  2  1  1  6  0  0  0
  2  3  1  0  0  0  0
  2 13  1  0  0  0  0
  3  4  1  1  0  0  0
  3  9  1  0  0  0  0
  4  5  1  0  0  0  0
  5  6  1  0  0  0  0
  5 14  1  0  0  0  0
  6  7  2  0  0  0  0
  6  8  1  0  0  0  0
  8 15  1  0  0  0  0
  9  8  1  1  0  0  0
  9 10  1  0  0  0  0
 10 11  1  0  0  0  0
 10 16  1  0  0  0  0
 11 12  2  0  0  0  0
 11 13  1  0  0  0  0
 13 17  1  0  0  0  0
M  END
>  <CHROM.0>
-60.61458623,-60.64297713,-65.73196787,-42.74794416,-175.90157389,-61.42654905
-67.37653943,60.16930742,-168.70675397

>  <CHROM.1>
-26.56562489,13.86790914,-16.17145243,1.91760791,0.80817244,2.81344334

>  <Name>
P24155541

>  <RI>
0

>  <Rbt.Current_Directory>
/home/fstefaniak/projects/zuza/docking/adenine/4TZX

>  <Rbt.Executable>
rbdock ($Id: //depot/dev/client3/rdock/2013.1/src/exe/rbdock.cxx#4 $)

>  <Rbt.Library>
libRbt.so (2013.1, Build901 2013/11/27)

>  <Rbt.Parameter_File>
/home/fstefaniak/progs/rDock//data/scripts/dock_solv.prm

>  <Rbt.Receptor>
4tzx.prm

>  <SCORE>
-37.9017

>  <SCORE.INTER>
-17.5177

>  <SCORE.INTER.CONST>
1

>  <SCORE.INTER.POLAR>
-0.916515

>  <SCORE.INTER.ROT>
0

>  <SCORE.INTER.SOLV>
11.0306

>  <SCORE.INTER.VDW>
-15.9003

>  <SCORE.INTER.norm>
-1.34752

>  <SCORE.INTRA>
0

>  <SCORE.INTRA.DIHEDRAL>
0

>  <SCORE.INTRA.DIHEDRAL.0>
0

>  <SCORE.INTRA.POLAR>
0

>  <SCORE.INTRA.POLAR.0>
0

>  <SCORE.INTRA.REPUL>
0

>  <SCORE.INTRA.REPUL.0>
0

>  <SCORE.INTRA.SOLV>
0

>  <SCORE.INTRA.SOLV.lig_0>
-27.6356

>  <SCORE.INTRA.VDW>
0

>  <SCORE.INTRA.VDW.0>
0

>  <SCORE.INTRA.norm>
0

>  <SCORE.RESTR>
0

>  <SCORE.RESTR.CAVITY>
0

>  <SCORE.RESTR.norm>
0

>  <SCORE.SYSTEM>
-20.384

>  <SCORE.SYSTEM.CONST>
0

>  <SCORE.SYSTEM.DIHEDRAL>
4.50204

>  <SCORE.SYSTEM.POLAR>
-3.05111

>  <SCORE.SYSTEM.SOLV>
-0.172005

>  <SCORE.SYSTEM.VDW>
-4.86228

>  <SCORE.SYSTEM.norm>
-1.568

>  <SCORE.heavy>
13

>  <SCORE.norm>
-2.91551

$$$$
P24155541
 OpenBabel12072022113D
libRbt.so/2013.1/901 2013/11/27
 17 18  0  0  0  0  0  0  0  0999 V2000
  -28.3763   11.0281  -15.4331 C   0  0  0  0  0  0  0  0  0  0  0  0
  -27.0850   11.5678  -16.0516 C   0  0  2  0  0  0  0  0  0  0  0  0
  -26.8213   13.0181  -15.6449 C   0  0  1  0  0  0  0  0  0  0  0  0
  -25.3797   13.4468  -15.8964 C   0  0  0  0  0  0  0  0  0  0  0  0
  -25.2207   14.8556  -15.6243 N   0  0  0  0  0  0  0  0  0  0  0  0
  -26.1615   15.7855  -15.9260 C   0  0  0  0  0  0  0  0  0  0  0  0
  -25.9222   16.9852  -15.8674 O   0  0  0  0  0  0  0  0  0  0  0  0
  -27.3901   15.3239  -16.2603 N   0  0  0  0  0  0  0  0  0  0  0  0
  -27.7238   13.9427  -16.4499 C   0  0  1  0  0  0  0  0  0  0  0  0
  -27.7215   13.6336  -17.8479 N   0  0  0  0  0  0  0  0  0  0  0  0
  -27.5611   12.3900  -18.3551 C   0  0  0  0  0  0  0  0  0  0  0  0
  -27.7424   12.1481  -19.5415 O   0  0  0  0  0  0  0  0  0  0  0  0
  -27.1417   11.4300  -17.4939 N   0  0  0  0  0  0  0  0  0  0  0  0
  -24.2953   15.2410  -15.4789 H   0  0  0  0  0  0  0  0  0  0  0  0
  -28.0577   16.0420  -16.5019 H   0  0  0  0  0  0  0  0  0  0  0  0
  -28.0618   14.3194  -18.5060 H   0  0  0  0  0  0  0  0  0  0  0  0
  -27.0563   10.5121  -17.9156 H   0  0  0  0  0  0  0  0  0  0  0  0
  2  1  1  1  0  0  0
  2  3  1  0  0  0  0
  2 13  1  0  0  0  0
  3  4  1  6  0  0  0
  3  9  1  0  0  0  0
  4  5  1  0  0  0  0
  5  6  1  0  0  0  0
  5 14  1  0  0  0  0
  6  7  2  0  0  0  0
  6  8  1  0  0  0  0
  8 15  1  0  0  0  0
  9  8  1  6  0  0  0
  9 10  1  0  0  0  0
 10 11  1  0  0  0  0
 10 16  1  0  0  0  0
 11 12  2  0  0  0  0
 11 13  1  0  0  0  0
 13 17  1  0  0  0  0
M  END
>  <CHROM.0>
-61.90609840,-175.98029236,169.96584014,-42.57748037,-177.26118474,-61.63766620
54.08454906,-173.90860487,-169.39139517

>  <CHROM.1>
-26.94335852,13.52289667,-16.67046038,-2.67349400,-1.16933891,-0.68199578

>  <Name>
P24155541

>  <RI>
0

>  <Rbt.Current_Directory>
/home/fstefaniak/projects/zuza/docking/adenine/4TZX

>  <Rbt.Executable>
rbdock ($Id: //depot/dev/client3/rdock/2013.1/src/exe/rbdock.cxx#4 $)

>  <Rbt.Library>
libRbt.so (2013.1, Build901 2013/11/27)

>  <Rbt.Parameter_File>
/home/fstefaniak/progs/rDock//data/scripts/dock_solv.prm

>  <Rbt.Receptor>
4tzx.prm

>  <SCORE>
-36.4617

>  <SCORE.INTER>
-18.3646

>  <SCORE.INTER.CONST>
1

>  <SCORE.INTER.POLAR>
-1.75597

>  <SCORE.INTER.ROT>
0

>  <SCORE.INTER.SOLV>
12.2542

>  <SCORE.INTER.VDW>
-14.0746

>  <SCORE.INTER.norm>
-1.41266

>  <SCORE.INTRA>
0

>  <SCORE.INTRA.DIHEDRAL>
0

>  <SCORE.INTRA.DIHEDRAL.0>
0

>  <SCORE.INTRA.POLAR>
0

>  <SCORE.INTRA.POLAR.0>
0

>  <SCORE.INTRA.REPUL>
0

>  <SCORE.INTRA.REPUL.0>
0

>  <SCORE.INTRA.SOLV>
0

>  <SCORE.INTRA.SOLV.lig_0>
-27.6356

>  <SCORE.INTRA.VDW>
0

>  <SCORE.INTRA.VDW.0>
0

>  <SCORE.INTRA.norm>
0

>  <SCORE.RESTR>
0.680169

>  <SCORE.RESTR.CAVITY>
0.680169

>  <SCORE.RESTR.norm>
0.0523207

>  <SCORE.SYSTEM>
-18.7773

>  <SCORE.SYSTEM.CONST>
0

>  <SCORE.SYSTEM.DIHEDRAL>
4.89452

>  <SCORE.SYSTEM.POLAR>
-3.00068

>  <SCORE.SYSTEM.SOLV>
-0.273995

>  <SCORE.SYSTEM.VDW>
-4.05608

>  <SCORE.SYSTEM.norm>
-1.4444

>  <SCORE.heavy>
13

>  <SCORE.norm>
-2.80475

$$$$
P24180736
 OpenBabel12072022113D
libRbt.so/2013.1/901 2013/11/27
 13 12  0  0  0  0  0  0  0  0999 V2000
  -28.3160   15.5754  -15.6011 C   0  0  0  0  0  0  0  0  0  0  0  0
  -29.4016   16.6708  -15.6582 C   0  0  0  0  0  0  0  0  0  0  0  0
  -29.9937   16.9470  -14.5335 N   0  0  0  0  0  0  0  0  0  0  0  0
  -30.9896   17.8713  -14.5057 C   0  0  0  0  0  0  0  0  0  0  0  0
  -31.4600   18.4772  -15.4607 O   0  0  0  0  0  0  0  0  0  0  0  0
  -31.4615   18.0475  -13.2532 N   0  0  0  0  0  0  0  0  0  0  0  0
  -29.6651   17.2741  -16.8751 N   0  0  0  0  0  0  0  0  0  0  0  0
  -28.8613   14.1887  -16.5717 Cl  0  0  0  0  0  0  0  0  0  0  0  0
  -26.7994   16.2331  -16.2463 Cl  0  0  0  0  0  0  0  0  0  0  0  0
  -31.0610   17.5189  -12.4957 H   0  0  0  0  0  0  0  0  0  0  0  0
  -32.2160   18.6970  -13.0985 H   0  0  0  0  0  0  0  0  0  0  0  0
  -29.1608   16.9217  -17.6833 H   0  0  0  0  0  0  0  0  0  0  0  0
  -30.6579   17.4415  -17.0569 H   0  0  0  0  0  0  0  0  0  0  0  0
  1  2  1  0  0  0  0
  1  8  1  0  0  0  0
  1  9  1  0  0  0  0
  2  3  2  0  0  0  0
  2  7  1  0  0  0  0
  3  4  1  0  0  0  0
  4  5  2  0  0  0  0
  4  6  1  0  0  0  0
  6 10  1  0  0  0  0
  6 11  1  0  0  0  0
  7 12  1  0  0  0  0
  7 13  1  0  0  0  0
M  END
>  <CHROM.0>
-60.41327477,-58.45481029,-70.07919218,-42.66862610,-52.20995412,-53.82957728
-165.80946806,-52.32490744,-168.30522969

>  <CHROM.1>
114.89030456,3.42072956,2.91758603,-29.24180416,16.44181471,-15.66277745
0.75197388,-0.26748695,-2.79537842

>  <Name>
P24180736

>  <RI>
0

>  <Rbt.Current_Directory>
/home/fstefaniak/projects/zuza/docking/adenine/4TZX

>  <Rbt.Executable>
rbdock ($Id: //depot/dev/client3/rdock/2013.1/src/exe/rbdock.cxx#4 $)

>  <Rbt.Library>
libRbt.so (2013.1, Build901 2013/11/27)

>  <Rbt.Parameter_File>
/home/fstefaniak/progs/rDock//data/scripts/dock_solv.prm

>  <Rbt.Receptor>
4tzx.prm

>  <SCORE>
-54.7292

>  <SCORE.INTER>
-31.7823

>  <SCORE.INTER.CONST>
1

>  <SCORE.INTER.POLAR>
-4.80843

>  <SCORE.INTER.ROT>
3

>  <SCORE.INTER.SOLV>
11.111

>  <SCORE.INTER.VDW>
-14.4637

>  <SCORE.INTER.norm>
-3.53136

>  <SCORE.INTRA>
-2.82636

>  <SCORE.INTRA.DIHEDRAL>
-5.57404

>  <SCORE.INTRA.DIHEDRAL.0>
7.16013

>  <SCORE.INTRA.POLAR>
0

>  <SCORE.INTRA.POLAR.0>
0

>  <SCORE.INTRA.REPUL>
0

>  <SCORE.INTRA.REPUL.0>
0

>  <SCORE.INTRA.SOLV>
-0.0470018

>  <SCORE.INTRA.SOLV.lig_0>
-15.1375

>  <SCORE.INTRA.VDW>
-0.0158323

>  <SCORE.INTRA.VDW.0>
-0.844627

>  <SCORE.INTRA.norm>
-0.314039

>  <SCORE.RESTR>
0

>  <SCORE.RESTR.CAVITY>
0

>  <SCORE.RESTR.norm>
0

>  <SCORE.SYSTEM>
-20.1206

>  <SCORE.SYSTEM.CONST>
0

>  <SCORE.SYSTEM.DIHEDRAL>
6.11958

>  <SCORE.SYSTEM.POLAR>
-3.10725

>  <SCORE.SYSTEM.SOLV>
0.192627

>  <SCORE.SYSTEM.VDW>
-5.16028

>  <SCORE.SYSTEM.norm>
-2.23562

>  <SCORE.heavy>
9

>  <SCORE.norm>
-6.08102

$$$$
P24180736
 OpenBabel12072022113D
libRbt.so/2013.1/901 2013/11/27
 13 12  0  0  0  0  0  0  0  0999 V2000
  -28.3041   15.5646  -15.6462 C   0  0  0  0  0  0  0  0  0  0  0  0
  -29.3943   16.6557  -15.6979 C   0  0  0  0  0  0  0  0  0  0  0  0
  -29.9595   16.9522  -14.5646 N   0  0  0  0  0  0  0  0  0  0  0  0
  -30.9575   17.8741  -14.5303 C   0  0  0  0  0  0  0  0  0  0  0  0
  -31.4180   18.4977  -15.4787 O   0  0  0  0  0  0  0  0  0  0  0  0
  -31.4440   18.0251  -13.2801 N   0  0  0  0  0  0  0  0  0  0  0  0
  -29.6896   17.2344  -16.9194 N   0  0  0  0  0  0  0  0  0  0  0  0
  -28.7724   14.2459  -16.7435 Cl  0  0  0  0  0  0  0  0  0  0  0  0
  -26.7556   16.2735  -16.1448 Cl  0  0  0  0  0  0  0  0  0  0  0  0
  -31.0512   17.4825  -12.5284 H   0  0  0  0  0  0  0  0  0  0  0  0
  -32.2015   18.6703  -13.1214 H   0  0  0  0  0  0  0  0  0  0  0  0
  -29.1770   16.8932  -17.7273 H   0  0  0  0  0  0  0  0  0  0  0  0
  -30.6895   17.3603  -17.0961 H   0  0  0  0  0  0  0  0  0  0  0  0
  1  2  1  0  0  0  0
  1  8  1  0  0  0  0
  1  9  1  0  0  0  0
  2  3  2  0  0  0  0
  2  7  1  0  0  0  0
  3  4  1  0  0  0  0
  4  5  2  0  0  0  0
  4  6  1  0  0  0  0
  6 10  1  0  0  0  0
  6 11  1  0  0  0  0
  7 12  1  0  0  0  0
  7 13  1  0  0  0  0
M  END
>  <CHROM.0>
-58.93519837,49.87095678,-71.01086868,-42.50018971,-174.15135254,62.56356199
-168.72487920,57.19385413,-168.39607261

>  <CHROM.1>
122.11063755,1.03894936,-0.12166167,-29.20438409,16.45669557,-15.69638231
-0.78121128,0.11597071,0.51215234

>  <Name>
P24180736

>  <RI>
0

>  <Rbt.Current_Directory>
/home/fstefaniak/projects/zuza/docking/adenine/4TZX

>  <Rbt.Executable>
rbdock ($Id: //depot/dev/client3/rdock/2013.1/src/exe/rbdock.cxx#4 $)

>  <Rbt.Library>
libRbt.so (2013.1, Build901 2013/11/27)

>  <Rbt.Parameter_File>
/home/fstefaniak/progs/rDock//data/scripts/dock_solv.prm

>  <Rbt.Receptor>
4tzx.prm

>  <SCORE>
-52.3584

>  <SCORE.INTER>
-31.7411

>  <SCORE.INTER.CONST>
1

>  <SCORE.INTER.POLAR>
-4.75241

>  <SCORE.INTER.ROT>
3

>  <SCORE.INTER.SOLV>
11.0526

>  <SCORE.INTER.VDW>
-14.6036

>  <SCORE.INTER.norm>
-3.52679

>  <SCORE.INTRA>
-2.86739

>  <SCORE.INTRA.DIHEDRAL>
-5.63257

>  <SCORE.INTRA.DIHEDRAL.0>
7.16013

>  <SCORE.INTRA.POLAR>
0

>  <SCORE.INTRA.POLAR.0>
0

>  <SCORE.INTRA.REPUL>
0

>  <SCORE.INTRA.REPUL.0>
0

>  <SCORE.INTRA.SOLV>
-0.0506023

>  <SCORE.INTRA.SOLV.lig_0>
-15.1375

>  <SCORE.INTRA.VDW>
-0.0258044

>  <SCORE.INTRA.VDW.0>
-0.844627

>  <SCORE.INTRA.norm>
-0.318599

>  <SCORE.RESTR>
0

>  <SCORE.RESTR.CAVITY>
0

>  <SCORE.RESTR.norm>
0

>  <SCORE.SYSTEM>
-17.7498

>  <SCORE.SYSTEM.CONST>
0

>  <SCORE.SYSTEM.DIHEDRAL>
5.89592

>  <SCORE.SYSTEM.POLAR>
-3.08741

>  <SCORE.SYSTEM.SOLV>
-0.230481

>  <SCORE.SYSTEM.VDW>
-3.43034

>  <SCORE.SYSTEM.norm>
-1.9722

>  <SCORE.heavy>
9

>  <SCORE.norm>
-5.8176

$$$$
P24180736
 OpenBabel12072022113D
libRbt.so/2013.1/901 2013/11/27
 13 12  0  0  0  0  0  0  0  0999 V2000
  -31.1305   18.5092  -18.1872 C   0  0  0  0  0  0  0  0  0  0  0  0
  -31.0754   17.7167  -16.8641 C   0  0  0  0  0  0  0  0  0  0  0  0
  -30.1713   16.7842  -16.7943 N   0  0  0  0  0  0  0  0  0  0  0  0
  -30.0833   16.0134  -15.6785 C   0  0  0  0  0  0  0  0  0  0  0  0
  -30.7858   16.0824  -14.6774 O   0  0  0  0  0  0  0  0  0  0  0  0
  -29.1080   15.0874  -15.7968 N   0  0  0  0  0  0  0  0  0  0  0  0
  -31.9705   18.0456  -15.8615 N   0  0  0  0  0  0  0  0  0  0  0  0
  -30.7786   20.2170  -17.8376 Cl  0  0  0  0  0  0  0  0  0  0  0  0
  -29.9303   17.8400  -19.3099 Cl  0  0  0  0  0  0  0  0  0  0  0  0
  -28.5622   15.0504  -16.6419 H   0  0  0  0  0  0  0  0  0  0  0  0
  -28.9501   14.4398  -15.0413 H   0  0  0  0  0  0  0  0  0  0  0  0
  -32.8561   17.5482  -15.8526 H   0  0  0  0  0  0  0  0  0  0  0  0
  -31.5489   18.1416  -14.9342 H   0  0  0  0  0  0  0  0  0  0  0  0
  1  2  1  0  0  0  0
  1  8  1  0  0  0  0
  1  9  1  0  0  0  0
  2  3  2  0  0  0  0
  2  7  1  0  0  0  0
  3  4  1  0  0  0  0
  4  5  2  0  0  0  0
  4  6  1  0  0  0  0
  6 10  1  0  0  0  0
  6 11  1  0  0  0  0
  7 12  1  0  0  0  0
  7 13  1  0  0  0  0
M  END
>  <CHROM.0>
-57.51580115,-62.43706986,-63.15385180,-43.75486945,-56.80470584,-176.67023988
-65.26953465,-60.83645115,-168.97036004

>  <CHROM.1>
-118.07798556,90.85809378,0.33057439,-30.50459397,17.75028812,-17.18309049
1.75549165,0.98880746,-0.86257207

>  <Name>
P24180736

>  <RI>
0

>  <Rbt.Current_Directory>
/home/fstefaniak/projects/zuza/docking/adenine/4TZX

>  <Rbt.Executable>
rbdock ($Id: //depot/dev/client3/rdock/2013.1/src/exe/rbdock.cxx#4 $)

>  <Rbt.Library>
libRbt.so (2013.1, Build901 2013/11/27)

>  <Rbt.Parameter_File>
/home/fstefaniak/progs/rDock//data/scripts/dock_solv.prm

>  <Rbt.Receptor>
4tzx.prm

>  <SCORE>
-52.343

>  <SCORE.INTER>
-29.2291

>  <SCORE.INTER.CONST>
1

>  <SCORE.INTER.POLAR>
-3.68468

>  <SCORE.INTER.ROT>
3

>  <SCORE.INTER.SOLV>
12.6268

>  <SCORE.INTER.VDW>
-17.0128

>  <SCORE.INTER.norm>
-3.24768

>  <SCORE.INTRA>
-2.1774

>  <SCORE.INTRA.DIHEDRAL>
-5.64277

>  <SCORE.INTRA.DIHEDRAL.0>
7.16013

>  <SCORE.INTRA.POLAR>
0

>  <SCORE.INTRA.POLAR.0>
0

>  <SCORE.INTRA.REPUL>
0

>  <SCORE.INTRA.REPUL.0>
0

>  <SCORE.INTRA.SOLV>
0.00108904

>  <SCORE.INTRA.SOLV.lig_0>
-15.1375

>  <SCORE.INTRA.VDW>
0.643438

>  <SCORE.INTRA.VDW.0>
-0.844627

>  <SCORE.INTRA.norm>
-0.241934

>  <SCORE.RESTR>
0

>  <SCORE.RESTR.CAVITY>
0

>  <SCORE.RESTR.norm>
0

>  <SCORE.SYSTEM>
-20.9364

>  <SCORE.SYSTEM.CONST>
0

>  <SCORE.SYSTEM.DIHEDRAL>
4.17964

>  <SCORE.SYSTEM.POLAR>
-3.06022

>  <SCORE.SYSTEM.SOLV>
0.0799561

>  <SCORE.SYSTEM.VDW>
-5.17675

>  <SCORE.SYSTEM.norm>
-2.32627

>  <SCORE.heavy>
9

>  <SCORE.norm>
-5.81589

$$$$
P24207812
 OpenBabel12072022113D
libRbt.so/2013.1/901 2013/11/27
 14 14  0  0  0  0  0  0  0  0999 V2000
  -28.1076   14.0805  -16.3983 C   0  0  0  0  0  0  0  0  0  0  0  0
  -29.1631   15.0187  -16.5540 O   0  0  0  0  0  0  0  0  0  0  0  0
  -28.7318   16.3549  -16.3034 C   0  0  2  0  0  0  0  0  0  0  0  0
  -29.2163   16.7837  -14.9066 C   0  0  2  0  0  0  0  0  0  0  0  0
  -30.5184   17.5054  -15.2148 C   0  0  1  0  0  0  0  0  0  0  0  0
  -30.2012   18.1468  -16.5635 C   0  0  1  0  0  0  0  0  0  0  0  0
  -29.2859   17.2681  -17.2606 O   0  0  0  0  0  0  0  0  0  0  0  0
  -31.4113   18.3974  -17.4566 C   0  0  0  0  0  0  0  0  0  0  0  0
  -32.5587   18.6518  -16.6396 O   0  0  0  0  0  0  0  0  0  0  0  0
  -31.6145   16.5952  -15.3038 O   0  0  0  0  0  0  0  0  0  0  0  0
  -28.3099   17.7069  -14.2891 O   0  0  0  0  0  0  0  0  0  0  0  0
  -32.7597   17.7972  -16.2117 H   0  0  0  0  0  0  0  0  0  0  0  0
  -31.3563   15.8746  -15.9045 H   0  0  0  0  0  0  0  0  0  0  0  0
  -28.8449   18.3407  -13.7787 H   0  0  0  0  0  0  0  0  0  0  0  0
  1  2  1  0  0  0  0
  3  7  1  0  0  0  0
  3  2  1  6  0  0  0
  3  4  1  0  0  0  0
  4 11  1  6  0  0  0
  4  5  1  0  0  0  0
  5 10  1  6  0  0  0
  5  6  1  0  0  0  0
  6  7  1  0  0  0  0
  6  8  1  6  0  0  0
  8  9  1  0  0  0  0
  9 12  1  0  0  0  0
 10 13  1  0  0  0  0
 11 14  1  0  0  0  0
M  END
>  <CHROM.0>
-60.03304065,178.36202777,-68.29466896,-42.31335388,-57.21557379,-58.70795783
-64.21048137,-176.80102300,-168.73048962

>  <CHROM.1>
-102.94749758,144.23271019,-50.19807225,30.70576926,-69.23224128,-29.95066213
16.94440718,-16.07238256,0.41242198,0.63160131,-2.38820482

>  <Name>
P24207812

>  <RI>
0

>  <Rbt.Current_Directory>
/home/fstefaniak/projects/zuza/docking/adenine/4TZX

>  <Rbt.Executable>
rbdock ($Id: //depot/dev/client3/rdock/2013.1/src/exe/rbdock.cxx#4 $)

>  <Rbt.Library>
libRbt.so (2013.1, Build901 2013/11/27)

>  <Rbt.Parameter_File>
/home/fstefaniak/progs/rDock//data/scripts/dock_solv.prm

>  <Rbt.Receptor>
4tzx.prm

>  <SCORE>
-46.8203

>  <SCORE.INTER>
-32.3474

>  <SCORE.INTER.CONST>
1

>  <SCORE.INTER.POLAR>
-5.14681

>  <SCORE.INTER.ROT>
2

>  <SCORE.INTER.SOLV>
13.5833

>  <SCORE.INTER.VDW>
-13.87

>  <SCORE.INTER.norm>
-2.94068

>  <SCORE.INTRA>
6.40672

>  <SCORE.INTRA.DIHEDRAL>
13.0041

>  <SCORE.INTRA.DIHEDRAL.0>
1.02916

>  <SCORE.INTRA.POLAR>
-0.429608

>  <SCORE.INTRA.POLAR.0>
-0.0945277

>  <SCORE.INTRA.REPUL>
0

>  <SCORE.INTRA.REPUL.0>
0

>  <SCORE.INTRA.SOLV>
0.968748

>  <SCORE.INTRA.SOLV.lig_0>
-18.5277

>  <SCORE.INTRA.VDW>
0.88097

>  <SCORE.INTRA.VDW.0>
0.00199835

>  <SCORE.INTRA.norm>
0.582429

>  <SCORE.RESTR>
0

>  <SCORE.RESTR.CAVITY>
0

>  <SCORE.RESTR.norm>
0

>  <SCORE.SYSTEM>
-20.8796

>  <SCORE.SYSTEM.CONST>
0

>  <SCORE.SYSTEM.DIHEDRAL>
4.57169

>  <SCORE.SYSTEM.POLAR>
-3.061

>  <SCORE.SYSTEM.SOLV>
0.0420977

>  <SCORE.SYSTEM.VDW>
-5.25434

>  <SCORE.SYSTEM.norm>
-1.89815

>  <SCORE.heavy>
11

>  <SCORE.norm>
-4.25639

$$$$
P24207812
 OpenBabel12072022113D
libRbt.so/2013.1/901 2013/11/27
 14 14  0  0  0  0  0  0  0  0999 V2000
  -28.2541   14.0398  -16.3437 C   0  0  0  0  0  0  0  0  0  0  0  0
  -29.2319   14.9740  -16.7792 O   0  0  0  0  0  0  0  0  0  0  0  0
  -28.7952   16.3216  -16.6126 C   0  0  2  0  0  0  0  0  0  0  0  0
  -28.8966   16.7002  -15.1240 C   0  0  2  0  0  0  0  0  0  0  0  0
  -30.2576   17.3731  -15.0453 C   0  0  1  0  0  0  0  0  0  0  0  0
  -30.3411   18.0555  -16.4085 C   0  0  1  0  0  0  0  0  0  0  0  0
  -29.6197   17.2308  -17.3547 O   0  0  0  0  0  0  0  0  0  0  0  0
  -31.7562   18.2740  -16.9324 C   0  0  0  0  0  0  0  0  0  0  0  0
  -31.7009   18.6006  -18.3249 O   0  0  0  0  0  0  0  0  0  0  0  0
  -31.3045   16.4199  -14.8631 O   0  0  0  0  0  0  0  0  0  0  0  0
  -27.8890   17.6474  -14.7459 O   0  0  0  0  0  0  0  0  0  0  0  0
  -31.5902   17.7446  -18.7818 H   0  0  0  0  0  0  0  0  0  0  0  0
  -31.3577   15.8770  -15.6689 H   0  0  0  0  0  0  0  0  0  0  0  0
  -27.8002   18.2837  -15.4778 H   0  0  0  0  0  0  0  0  0  0  0  0
  1  2  1  0  0  0  0
  3  7  1  0  0  0  0
  3  2  1  1  0  0  0
  3  4  1  0  0  0  0
  4 11  1  6  0  0  0
  4  5  1  0  0  0  0
  5 10  1  6  0  0  0
  5  6  1  0  0  0  0
  6  7  1  0  0  0  0
  6  8  1  6  0  0  0
  8  9  1  0  0  0  0
  9 12  1  0  0  0  0
 10 13  1  0  0  0  0
 11 14  1  0  0  0  0
M  END
>  <CHROM.0>
-63.89520617,-171.24058806,-71.98470432,-42.94162012,-172.83212489,-59.28259166
-169.13821217,55.21329641,-169.01096050

>  <CHROM.1>
-76.05545935,39.65180446,-66.44382460,-165.64918460,80.14611636,-29.83442618
16.86663199,-16.26032721,0.19301130,0.80744496,-2.31043162

>  <Name>
P24207812

>  <RI>
0

>  <Rbt.Current_Directory>
/home/fstefaniak/projects/zuza/docking/adenine/4TZX

>  <Rbt.Executable>
rbdock ($Id: //depot/dev/client3/rdock/2013.1/src/exe/rbdock.cxx#4 $)

>  <Rbt.Library>
libRbt.so (2013.1, Build901 2013/11/27)

>  <Rbt.Parameter_File>
/home/fstefaniak/progs/rDock//data/scripts/dock_solv.prm

>  <Rbt.Receptor>
4tzx.prm

>  <SCORE>
-46.6173

>  <SCORE.INTER>
-30.6952

>  <SCORE.INTER.CONST>
1

>  <SCORE.INTER.POLAR>
-5.08099

>  <SCORE.INTER.ROT>
2

>  <SCORE.INTER.SOLV>
12.9476

>  <SCORE.INTER.VDW>
-12.776

>  <SCORE.INTER.norm>
-2.79048

>  <SCORE.INTRA>
3.56214

>  <SCORE.INTRA.DIHEDRAL>
5.00198

>  <SCORE.INTRA.DIHEDRAL.0>
1.02916

>  <SCORE.INTRA.POLAR>
0.0945277

>  <SCORE.INTRA.POLAR.0>
-0.0945277

>  <SCORE.INTRA.REPUL>
0

>  <SCORE.INTRA.REPUL.0>
0

>  <SCORE.INTRA.SOLV>
0.263099

>  <SCORE.INTRA.SOLV.lig_0>
-18.5277

>  <SCORE.INTRA.VDW>
0.608205

>  <SCORE.INTRA.VDW.0>
0.00199835

>  <SCORE.INTRA.norm>
0.323831

>  <SCORE.RESTR>
0

>  <SCORE.RESTR.CAVITY>
0

>  <SCORE.RESTR.norm>
0

>  <SCORE.SYSTEM>
-19.4842

>  <SCORE.SYSTEM.CONST>
0

>  <SCORE.SYSTEM.DIHEDRAL>
5.89038

>  <SCORE.SYSTEM.POLAR>
-3.01304

>  <SCORE.SYSTEM.SOLV>
-0.235906

>  <SCORE.SYSTEM.VDW>
-4.83085

>  <SCORE.SYSTEM.norm>
-1.77129

>  <SCORE.heavy>
11

>  <SCORE.norm>
-4.23794

$$$$
P24207812
 OpenBabel12072022113D
libRbt.so/2013.1/901 2013/11/27
 14 14  0  0  0  0  0  0  0  0999 V2000
  -28.1996   14.0357  -16.4793 C   0  0  0  0  0  0  0  0  0  0  0  0
  -29.1984   14.9837  -16.8287 O   0  0  0  0  0  0  0  0  0  0  0  0
  -28.7683   16.3236  -16.5963 C   0  0  2  0  0  0  0  0  0  0  0  0
  -28.9022   16.6392  -15.0956 C   0  0  2  0  0  0  0  0  0  0  0  0
  -30.2660   17.3065  -15.0178 C   0  0  1  0  0  0  0  0  0  0  0  0
  -30.3219   18.0455  -16.3526 C   0  0  1  0  0  0  0  0  0  0  0  0
  -29.5788   17.2621  -17.3171 O   0  0  0  0  0  0  0  0  0  0  0  0
  -31.7260   18.2840  -16.8970 C   0  0  0  0  0  0  0  0  0  0  0  0
  -31.6447   18.6259  -18.2845 O   0  0  0  0  0  0  0  0  0  0  0  0
  -31.3145   16.3451  -14.8982 O   0  0  0  0  0  0  0  0  0  0  0  0
  -27.9049   17.5709  -14.6567 O   0  0  0  0  0  0  0  0  0  0  0  0
  -31.5482   17.7731  -18.7505 H   0  0  0  0  0  0  0  0  0  0  0  0
  -31.3656   15.8532  -15.7362 H   0  0  0  0  0  0  0  0  0  0  0  0
  -27.7968   18.2335  -15.3622 H   0  0  0  0  0  0  0  0  0  0  0  0
  1  2  1  0  0  0  0
  3  7  1  0  0  0  0
  3  2  1  1  0  0  0
  3  4  1  0  0  0  0
  4 11  1  6  0  0  0
  4  5  1  0  0  0  0
  5 10  1  6  0  0  0
  5  6  1  0  0  0  0
  6  7  1  0  0  0  0
  6  8  1  6  0  0  0
  8  9  1  0  0  0  0
  9 12  1  0  0  0  0
 10 13  1  0  0  0  0
 11 14  1  0  0  0  0
M  END
>  <CHROM.0>
-59.77009450,-170.30198192,-65.05609490,-41.02675439,-177.53284947,56.33415243
-70.69689277,60.30248330,-168.87260389

>  <CHROM.1>
-79.23882004,39.21074086,-67.99482343,-163.75572074,80.96284852,-29.81385697
16.84775954,-16.25101649,0.15955546,0.81177055,-2.23423619

>  <Name>
P24207812

>  <RI>
0

>  <Rbt.Current_Directory>
/home/fstefaniak/projects/zuza/docking/adenine/4TZX

>  <Rbt.Executable>
rbdock ($Id: //depot/dev/client3/rdock/2013.1/src/exe/rbdock.cxx#4 $)

>  <Rbt.Library>
libRbt.so (2013.1, Build901 2013/11/27)

>  <Rbt.Parameter_File>
/home/fstefaniak/progs/rDock//data/scripts/dock_solv.prm

>  <Rbt.Receptor>
4tzx.prm

>  <SCORE>
-46.128

>  <SCORE.INTER>
-31.0365

>  <SCORE.INTER.CONST>
1

>  <SCORE.INTER.POLAR>
-5.2212

>  <SCORE.INTER.ROT>
2

>  <SCORE.INTER.SOLV>
13.0218

>  <SCORE.INTER.VDW>
-12.561

>  <SCORE.INTER.norm>
-2.8215

>  <SCORE.INTRA>
3.9156

>  <SCORE.INTRA.DIHEDRAL>
5.97542

>  <SCORE.INTRA.DIHEDRAL.0>
1.02916

>  <SCORE.INTRA.POLAR>
0.0945277

>  <SCORE.INTRA.POLAR.0>
-0.0945277

>  <SCORE.INTRA.REPUL>
0

>  <SCORE.INTRA.REPUL.0>
0

>  <SCORE.INTRA.SOLV>
0.264525

>  <SCORE.INTRA.SOLV.lig_0>
-18.5277

>  <SCORE.INTRA.VDW>
0.474237

>  <SCORE.INTRA.VDW.0>
0.00199835

>  <SCORE.INTRA.norm>
0.355964

>  <SCORE.RESTR>
0

>  <SCORE.RESTR.CAVITY>
0

>  <SCORE.RESTR.norm>
0

>  <SCORE.SYSTEM>
-19.007

>  <SCORE.SYSTEM.CONST>
0

>  <SCORE.SYSTEM.DIHEDRAL>
5.41818

>  <SCORE.SYSTEM.POLAR>
-3.07818

>  <SCORE.SYSTEM.SOLV>
-0.34022

>  <SCORE.SYSTEM.VDW>
-4.1034

>  <SCORE.SYSTEM.norm>
-1.72791

>  <SCORE.heavy>
11

>  <SCORE.norm>
-4.19345

$$$$
P24228551
 OpenBabel12072022113D
libRbt.so/2013.1/901 2013/11/27
 13 13  0  0  0  0  0  0  0  0999 V2000
  -28.6692   15.4245  -16.0239 C   0  0  0  0  0  0  0  0  0  0  0  0
  -28.6188   16.9523  -16.0723 C   0  0  1  0  0  0  0  0  0  0  0  0
  -29.8557   17.6071  -16.7103 C   0  0  2  0  0  0  0  0  0  0  0  0
  -31.0549   17.5424  -15.7580 C   0  0  1  0  0  0  0  0  0  0  0  0
  -30.6790   18.1161  -14.4039 C   0  0  0  0  0  0  0  0  0  0  0  0
  -29.4378   17.4217  -13.8639 C   0  0  1  0  0  0  0  0  0  0  0  0
  -28.3513   17.5013  -14.7772 O   0  0  0  0  0  0  0  0  0  0  0  0
  -29.0405   18.0782  -12.6745 O   0  0  0  0  0  0  0  0  0  0  0  0
  -32.1465   18.2824  -16.3106 O   0  0  0  0  0  0  0  0  0  0  0  0
  -30.2191   16.9975  -17.9522 O   0  0  0  0  0  0  0  0  0  0  0  0
  -28.3307   17.5227  -12.3127 H   0  0  0  0  0  0  0  0  0  0  0  0
  -32.9332   17.7164  -16.1833 H   0  0  0  0  0  0  0  0  0  0  0  0
  -29.4118   16.9487  -18.4954 H   0  0  0  0  0  0  0  0  0  0  0  0
  2  1  1  1  0  0  0
  2  3  1  0  0  0  0
  2  7  1  0  0  0  0
  3 10  1  6  0  0  0
  3  4  1  0  0  0  0
  4  5  1  0  0  0  0
  4  9  1  6  0  0  0
  5  6  1  0  0  0  0
  6  7  1  0  0  0  0
  6  8  1  1  0  0  0
  8 11  1  0  0  0  0
  9 12  1  0  0  0  0
 10 13  1  0  0  0  0
M  END
>  <CHROM.0>
-56.99058348,-58.35792771,-70.20759472,-42.26749135,-55.39277638,-59.78713864
-167.99435022,-61.14736556,-169.15025138

>  <CHROM.1>
-49.82705369,135.35418627,172.28897990,-29.81689522,17.39650570,-15.45746526
-2.05145844,-0.47828630,1.22896573

>  <Name>
P24228551

>  <RI>
0

>  <Rbt.Current_Directory>
/home/fstefaniak/projects/zuza/docking/adenine/4TZX

>  <Rbt.Executable>
rbdock ($Id: //depot/dev/client3/rdock/2013.1/src/exe/rbdock.cxx#4 $)

>  <Rbt.Library>
libRbt.so (2013.1, Build901 2013/11/27)

>  <Rbt.Parameter_File>
/home/fstefaniak/progs/rDock//data/scripts/dock_solv.prm

>  <Rbt.Receptor>
4tzx.prm

>  <SCORE>
-48.5938

>  <SCORE.INTER>
-31.2267

>  <SCORE.INTER.CONST>
1

>  <SCORE.INTER.POLAR>
-4.86005

>  <SCORE.INTER.ROT>
0

>  <SCORE.INTER.SOLV>
13.693

>  <SCORE.INTER.VDW>
-12.782

>  <SCORE.INTER.norm>
-3.12267

>  <SCORE.INTRA>
3.02831

>  <SCORE.INTRA.DIHEDRAL>
6.11781

>  <SCORE.INTRA.DIHEDRAL.0>
0.79452

>  <SCORE.INTRA.POLAR>
0.061013

>  <SCORE.INTRA.POLAR.0>
-0.061013

>  <SCORE.INTRA.REPUL>
0

>  <SCORE.INTRA.REPUL.0>
0

>  <SCORE.INTRA.SOLV>
-0.126461

>  <SCORE.INTRA.SOLV.lig_0>
-16.7178

>  <SCORE.INTRA.VDW>
-0.174805

>  <SCORE.INTRA.VDW.0>
-0.103995

>  <SCORE.INTRA.norm>
0.302831

>  <SCORE.RESTR>
0

>  <SCORE.RESTR.CAVITY>
0

>  <SCORE.RESTR.norm>
0

>  <SCORE.SYSTEM>
-20.3955

>  <SCORE.SYSTEM.CONST>
0

>  <SCORE.SYSTEM.DIHEDRAL>
5.30417

>  <SCORE.SYSTEM.POLAR>
-3.0749

>  <SCORE.SYSTEM.SOLV>
0.176275

>  <SCORE.SYSTEM.VDW>
-5.17412

>  <SCORE.SYSTEM.norm>
-2.03955

>  <SCORE.heavy>
10

>  <SCORE.norm>
-4.85938

$$$$
P24228551
 OpenBabel12072022113D
libRbt.so/2013.1/901 2013/11/27
 13 13  0  0  0  0  0  0  0  0999 V2000
  -30.7001   17.9941  -13.9916 C   0  0  0  0  0  0  0  0  0  0  0  0
  -31.3234   17.0437  -15.0150 C   0  0  1  0  0  0  0  0  0  0  0  0
  -31.5672   17.6726  -16.3973 C   0  0  2  0  0  0  0  0  0  0  0  0
  -30.2465   17.8404  -17.1568 C   0  0  1  0  0  0  0  0  0  0  0  0
  -29.4966   16.5214  -17.1997 C   0  0  0  0  0  0  0  0  0  0  0  0
  -29.3212   15.9694  -15.7929 C   0  0  1  0  0  0  0  0  0  0  0  0
  -30.5672   15.8326  -15.1224 O   0  0  0  0  0  0  0  0  0  0  0  0
  -28.7471   14.6791  -15.8878 O   0  0  0  0  0  0  0  0  0  0  0  0
  -30.5126   18.2889  -18.4883 O   0  0  0  0  0  0  0  0  0  0  0  0
  -32.2164   18.9445  -16.3138 O   0  0  0  0  0  0  0  0  0  0  0  0
  -28.8131   14.3143  -14.9901 H   0  0  0  0  0  0  0  0  0  0  0  0
  -31.1179   17.6227  -18.8693 H   0  0  0  0  0  0  0  0  0  0  0  0
  -32.3323   19.2683  -17.2253 H   0  0  0  0  0  0  0  0  0  0  0  0
  2  1  1  1  0  0  0
  2  3  1  0  0  0  0
  2  7  1  0  0  0  0
  3 10  1  1  0  0  0
  3  4  1  0  0  0  0
  4  5  1  0  0  0  0
  4  9  1  6  0  0  0
  5  6  1  0  0  0  0
  6  7  1  0  0  0  0
  6  8  1  6  0  0  0
  8 11  1  0  0  0  0
  9 12  1  0  0  0  0
 10 13  1  0  0  0  0
M  END
>  <CHROM.0>
-57.86402493,-62.03589959,-68.10657731,-43.21558763,-58.47987612,-61.58197227
-67.55781020,-58.72502237,-168.55823278

>  <CHROM.1>
-179.93113071,-56.32996066,-169.71435825,-30.47545399,17.07565746,-16.15828656
2.53072192,0.85863849,-1.19419877

>  <Name>
P24228551

>  <RI>
0

>  <Rbt.Current_Directory>
/home/fstefaniak/projects/zuza/docking/adenine/4TZX

>  <Rbt.Executable>
rbdock ($Id: //depot/dev/client3/rdock/2013.1/src/exe/rbdock.cxx#4 $)

>  <Rbt.Library>
libRbt.so (2013.1, Build901 2013/11/27)

>  <Rbt.Parameter_File>
/home/fstefaniak/progs/rDock//data/scripts/dock_solv.prm

>  <Rbt.Receptor>
4tzx.prm

>  <SCORE>
-48.0533

>  <SCORE.INTER>
-27.356

>  <SCORE.INTER.CONST>
1

>  <SCORE.INTER.POLAR>
-3.67359

>  <SCORE.INTER.ROT>
0

>  <SCORE.INTER.SOLV>
13.4165

>  <SCORE.INTER.VDW>
-14.0643

>  <SCORE.INTER.norm>
-2.7356

>  <SCORE.INTRA>
0.446496

>  <SCORE.INTRA.DIHEDRAL>
-0.181589

>  <SCORE.INTRA.DIHEDRAL.0>
0.79452

>  <SCORE.INTRA.POLAR>
0.061013

>  <SCORE.INTRA.POLAR.0>
-0.061013

>  <SCORE.INTRA.REPUL>
0

>  <SCORE.INTRA.REPUL.0>
0

>  <SCORE.INTRA.SOLV>
0.0542585

>  <SCORE.INTRA.SOLV.lig_0>
-16.7178

>  <SCORE.INTRA.VDW>
0.302717

>  <SCORE.INTRA.VDW.0>
-0.103995

>  <SCORE.INTRA.norm>
0.0446496

>  <SCORE.RESTR>
0

>  <SCORE.RESTR.CAVITY>
0

>  <SCORE.RESTR.norm>
0

>  <SCORE.SYSTEM>
-21.1437

>  <SCORE.SYSTEM.CONST>
0

>  <SCORE.SYSTEM.DIHEDRAL>
4.58958

>  <SCORE.SYSTEM.POLAR>
-3.05981

>  <SCORE.SYSTEM.SOLV>
0.18493

>  <SCORE.SYSTEM.VDW>
-5.48794

>  <SCORE.SYSTEM.norm>
-2.11437

>  <SCORE.heavy>
10

>  <SCORE.norm>
-4.80533

$$$$
P24228551
 OpenBabel12072022113D
libRbt.so/2013.1/901 2013/11/27
 13 13  0  0  0  0  0  0  0  0999 V2000
  -28.6458   15.4445  -15.9961 C   0  0  0  0  0  0  0  0  0  0  0  0
  -28.6168   16.9733  -16.0279 C   0  0  1  0  0  0  0  0  0  0  0  0
  -29.8576   17.6173  -16.6693 C   0  0  2  0  0  0  0  0  0  0  0  0
  -31.0635   17.5256  -15.7278 C   0  0  1  0  0  0  0  0  0  0  0  0
  -30.7070   18.0901  -14.3647 C   0  0  0  0  0  0  0  0  0  0  0  0
  -29.4606   17.4076  -13.8216 C   0  0  1  0  0  0  0  0  0  0  0  0
  -28.3678   17.5122  -14.7249 O   0  0  0  0  0  0  0  0  0  0  0  0
  -29.0825   18.0569  -12.6221 O   0  0  0  0  0  0  0  0  0  0  0  0
  -32.1610   18.2559  -16.2818 O   0  0  0  0  0  0  0  0  0  0  0  0
  -30.2020   17.0159  -17.9206 O   0  0  0  0  0  0  0  0  0  0  0  0
  -28.8747   18.9669  -12.8904 H   0  0  0  0  0  0  0  0  0  0  0  0
  -32.9458   17.6911  -16.1387 H   0  0  0  0  0  0  0  0  0  0  0  0
  -29.3859   16.9675  -18.4504 H   0  0  0  0  0  0  0  0  0  0  0  0
  2  1  1  1  0  0  0
  2  3  1  0  0  0  0
  2  7  1  0  0  0  0
  3 10  1  6  0  0  0
  3  4  1  0  0  0  0
  4  5  1  0  0  0  0
  4  9  1  6  0  0  0
  5  6  1  0  0  0  0
  6  7  1  0  0  0  0
  6  8  1  1  0  0  0
  8 11  1  0  0  0  0
  9 12  1  0  0  0  0
 10 13  1  0  0  0  0
M  END
>  <CHROM.0>
-60.81366762,-57.34368845,-65.30760969,-43.76223243,-57.79975821,-58.51516191
-68.40994425,-175.85461369,-168.86162326

>  <CHROM.1>
-48.67805609,137.28884310,-62.53200013,-29.82956480,17.40390996,-15.42251302
-2.02290054,-0.46661643,1.23411946

>  <Name>
P24228551

>  <RI>
0

>  <Rbt.Current_Directory>
/home/fstefaniak/projects/zuza/docking/adenine/4TZX

>  <Rbt.Executable>
rbdock ($Id: //depot/dev/client3/rdock/2013.1/src/exe/rbdock.cxx#4 $)

>  <Rbt.Library>
libRbt.so (2013.1, Build901 2013/11/27)

>  <Rbt.Parameter_File>
/home/fstefaniak/progs/rDock//data/scripts/dock_solv.prm

>  <Rbt.Receptor>
4tzx.prm

>  <SCORE>
-47.7943

>  <SCORE.INTER>
-29.9674

>  <SCORE.INTER.CONST>
1

>  <SCORE.INTER.POLAR>
-4.8492

>  <SCORE.INTER.ROT>
0

>  <SCORE.INTER.SOLV>
13.6903

>  <SCORE.INTER.VDW>
-11.9777

>  <SCORE.INTER.norm>
-2.99674

>  <SCORE.INTRA>
3.22765

>  <SCORE.INTRA.DIHEDRAL>
5.7

>  <SCORE.INTRA.DIHEDRAL.0>
0.79452

>  <SCORE.INTRA.POLAR>
0.061013

>  <SCORE.INTRA.POLAR.0>
-0.061013

>  <SCORE.INTRA.REPUL>
0

>  <SCORE.INTRA.REPUL.0>
0

>  <SCORE.INTRA.SOLV>
-0.161162

>  <SCORE.INTRA.SOLV.lig_0>
-16.7178

>  <SCORE.INTRA.VDW>
0.250784

>  <SCORE.INTRA.VDW.0>
-0.103995

>  <SCORE.INTRA.norm>
0.322765

>  <SCORE.RESTR>
0

>  <SCORE.RESTR.CAVITY>
0

>  <SCORE.RESTR.norm>
0

>  <SCORE.SYSTEM>
-21.0545

>  <SCORE.SYSTEM.CONST>
0

>  <SCORE.SYSTEM.DIHEDRAL>
4.4529

>  <SCORE.SYSTEM.POLAR>
-3.03865

>  <SCORE.SYSTEM.SOLV>
0.0560269

>  <SCORE.SYSTEM.VDW>
-5.41047

>  <SCORE.SYSTEM.norm>
-2.10545

>  <SCORE.heavy>
10

>  <SCORE.norm>
-4.77943

$$$$
P24228552
 OpenBabel12072022113D
libRbt.so/2013.1/901 2013/11/27
 13 13  0  0  0  0  0  0  0  0999 V2000
  -30.6268   18.6440  -18.5979 C   0  0  0  0  0  0  0  0  0  0  0  0
  -30.4944   17.6911  -17.4150 C   0  0  2  0  0  0  0  0  0  0  0  0
  -30.9781   18.3365  -16.1051 C   0  0  2  0  0  0  0  0  0  0  0  0
  -30.7065   17.3814  -14.9337 C   0  0  1  0  0  0  0  0  0  0  0  0
  -29.2545   16.9345  -14.9241 C   0  0  0  0  0  0  0  0  0  0  0  0
  -28.8832   16.3683  -16.2864 C   0  0  1  0  0  0  0  0  0  0  0  0
  -29.1132   17.3258  -17.3120 O   0  0  0  0  0  0  0  0  0  0  0  0
  -27.5129   16.0188  -16.3121 O   0  0  0  0  0  0  0  0  0  0  0  0
  -31.0147   18.0347  -13.7004 O   0  0  0  0  0  0  0  0  0  0  0  0
  -32.3801   18.6222  -16.1261 O   0  0  0  0  0  0  0  0  0  0  0  0
  -27.3331   15.7350  -17.2232 H   0  0  0  0  0  0  0  0  0  0  0  0
  -30.3237   18.7173  -13.5903 H   0  0  0  0  0  0  0  0  0  0  0  0
  -32.8513   17.7703  -16.1571 H   0  0  0  0  0  0  0  0  0  0  0  0
  2  7  1  0  0  0  0
  2  1  1  6  0  0  0
  2  3  1  0  0  0  0
  3 10  1  6  0  0  0
  3  4  1  0  0  0  0
  4  5  1  0  0  0  0
  4  9  1  1  0  0  0
  5  6  1  0  0  0  0
  6  7  1  0  0  0  0
  6  8  1  1  0  0  0
  8 11  1  0  0  0  0
  9 12  1  0  0  0  0
 10 13  1  0  0  0  0
M  END
>  <CHROM.0>
-60.33213694,179.96932699,-72.05248411,-41.70552690,-61.24416254,-176.82174571
-171.94699314,-173.85468165,-166.75019187

>  <CHROM.1>
66.23956154,-69.91663254,-175.60970770,-30.09208042,17.54126281,-16.16047390
3.02962039,-0.54644980,1.73399896

>  <Name>
P24228552

>  <RI>
0

>  <Rbt.Current_Directory>
/home/fstefaniak/projects/zuza/docking/adenine/4TZX

>  <Rbt.Executable>
rbdock ($Id: //depot/dev/client3/rdock/2013.1/src/exe/rbdock.cxx#4 $)

>  <Rbt.Library>
libRbt.so (2013.1, Build901 2013/11/27)

>  <Rbt.Parameter_File>
/home/fstefaniak/progs/rDock//data/scripts/dock_solv.prm

>  <Rbt.Receptor>
4tzx.prm

>  <SCORE>
-55.9528

>  <SCORE.INTER>
-35.9335

>  <SCORE.INTER.CONST>
1

>  <SCORE.INTER.POLAR>
-4.7751

>  <SCORE.INTER.ROT>
0

>  <SCORE.INTER.SOLV>
12.753

>  <SCORE.INTER.VDW>
-15.8897

>  <SCORE.INTER.norm>
-3.59335

>  <SCORE.INTRA>
0.0792126

>  <SCORE.INTRA.DIHEDRAL>
-0.363971

>  <SCORE.INTRA.DIHEDRAL.0>
1.14076

>  <SCORE.INTRA.POLAR>
0.0425732

>  <SCORE.INTRA.POLAR.0>
-0.0425732

>  <SCORE.INTRA.REPUL>
0

>  <SCORE.INTRA.REPUL.0>
0

>  <SCORE.INTRA.SOLV>
-0.0167643

>  <SCORE.INTRA.SOLV.lig_0>
-16.9242

>  <SCORE.INTRA.VDW>
0.124831

>  <SCORE.INTRA.VDW.0>
0.328339

>  <SCORE.INTRA.norm>
0.00792126

>  <SCORE.RESTR>
0

>  <SCORE.RESTR.CAVITY>
0

>  <SCORE.RESTR.norm>
0

>  <SCORE.SYSTEM>
-20.0985

>  <SCORE.SYSTEM.CONST>
0

>  <SCORE.SYSTEM.DIHEDRAL>
5.5313

>  <SCORE.SYSTEM.POLAR>
-3.04768

>  <SCORE.SYSTEM.SOLV>
-0.121057

>  <SCORE.SYSTEM.VDW>
-5.04346

>  <SCORE.SYSTEM.norm>
-2.00985

>  <SCORE.heavy>
10

>  <SCORE.norm>
-5.59528

$$$$
P24228552
 OpenBabel12072022113D
libRbt.so/2013.1/901 2013/11/27
 13 13  0  0  0  0  0  0  0  0999 V2000
  -30.2930   18.7037  -19.3563 C   0  0  0  0  0  0  0  0  0  0  0  0
  -30.6188   17.8340  -18.1470 C   0  0  2  0  0  0  0  0  0  0  0  0
  -31.3304   18.6349  -17.0431 C   0  0  2  0  0  0  0  0  0  0  0  0
  -31.5209   17.7439  -15.8069 C   0  0  1  0  0  0  0  0  0  0  0  0
  -30.2049   17.1120  -15.3863 C   0  0  0  0  0  0  0  0  0  0  0  0
  -29.5750   16.4001  -16.5742 C   0  0  1  0  0  0  0  0  0  0  0  0
  -29.3829   17.2991  -17.6589 O   0  0  0  0  0  0  0  0  0  0  0  0
  -28.3133   15.8725  -16.2133 O   0  0  0  0  0  0  0  0  0  0  0  0
  -32.0438   18.5237  -14.7293 O   0  0  0  0  0  0  0  0  0  0  0  0
  -32.6194   19.1001  -17.4551 O   0  0  0  0  0  0  0  0  0  0  0  0
  -27.8906   15.6131  -17.0482 H   0  0  0  0  0  0  0  0  0  0  0  0
  -32.2046   17.8875  -14.0048 H   0  0  0  0  0  0  0  0  0  0  0  0
  -32.4977   19.6066  -18.2780 H   0  0  0  0  0  0  0  0  0  0  0  0
  2  7  1  0  0  0  0
  2  1  1  6  0  0  0
  2  3  1  0  0  0  0
  3 10  1  6  0  0  0
  3  4  1  0  0  0  0
  4  5  1  0  0  0  0
  4  9  1  1  0  0  0
  5  6  1  0  0  0  0
  6  7  1  0  0  0  0
  6  8  1  1  0  0  0
  8 11  1  0  0  0  0
  9 12  1  0  0  0  0
 10 13  1  0  0  0  0
M  END
>  <CHROM.0>
-59.52221533,-173.50267287,-66.12795432,-43.02956654,-59.33122749,-65.59276005
-65.34922311,-58.92242353,-168.62211874

>  <CHROM.1>
-54.93474131,175.73839303,-167.83820541,-30.58913537,17.72929189,-16.82743795
-2.86829535,-0.62122769,1.89064758

>  <Name>
P24228552

>  <RI>
0

>  <Rbt.Current_Directory>
/home/fstefaniak/projects/zuza/docking/adenine/4TZX

>  <Rbt.Executable>
rbdock ($Id: //depot/dev/client3/rdock/2013.1/src/exe/rbdock.cxx#4 $)

>  <Rbt.Library>
libRbt.so (2013.1, Build901 2013/11/27)

>  <Rbt.Parameter_File>
/home/fstefaniak/progs/rDock//data/scripts/dock_solv.prm

>  <Rbt.Receptor>
4tzx.prm

>  <SCORE>
-55.4131

>  <SCORE.INTER>
-34.3839

>  <SCORE.INTER.CONST>
1

>  <SCORE.INTER.POLAR>
-4.75014

>  <SCORE.INTER.ROT>
0

>  <SCORE.INTER.SOLV>
13.5581

>  <SCORE.INTER.VDW>
-15.2082

>  <SCORE.INTER.norm>
-3.43839

>  <SCORE.INTRA>
-0.0173589

>  <SCORE.INTRA.DIHEDRAL>
-0.202372

>  <SCORE.INTRA.DIHEDRAL.0>
1.14076

>  <SCORE.INTRA.POLAR>
0.0425732

>  <SCORE.INTRA.POLAR.0>
-0.0425732

>  <SCORE.INTRA.REPUL>
0

>  <SCORE.INTRA.REPUL.0>
0

>  <SCORE.INTRA.SOLV>
-0.163676

>  <SCORE.INTRA.SOLV.lig_0>
-16.9242

>  <SCORE.INTRA.VDW>
0.0209163

>  <SCORE.INTRA.VDW.0>
0.328339

>  <SCORE.INTRA.norm>
-0.00173589

>  <SCORE.RESTR>
0

>  <SCORE.RESTR.CAVITY>
0

>  <SCORE.RESTR.norm>
0

>  <SCORE.SYSTEM>
-21.0119

>  <SCORE.SYSTEM.CONST>
0

>  <SCORE.SYSTEM.DIHEDRAL>
4.63856

>  <SCORE.SYSTEM.POLAR>
-3.05308

>  <SCORE.SYSTEM.SOLV>
0.150341

>  <SCORE.SYSTEM.VDW>
-5.42726

>  <SCORE.SYSTEM.norm>
-2.10119

>  <SCORE.heavy>
10

>  <SCORE.norm>
-5.54131

$$$$
P24228552
 OpenBabel12072022113D
libRbt.so/2013.1/901 2013/11/27
 13 13  0  0  0  0  0  0  0  0999 V2000
  -30.6533   18.6443  -18.5971 C   0  0  0  0  0  0  0  0  0  0  0  0
  -30.5001   17.6830  -17.4235 C   0  0  2  0  0  0  0  0  0  0  0  0
  -30.9796   18.3120  -16.1041 C   0  0  2  0  0  0  0  0  0  0  0  0
  -30.6873   17.3503  -14.9432 C   0  0  1  0  0  0  0  0  0  0  0  0
  -29.2304   16.9196  -14.9497 C   0  0  0  0  0  0  0  0  0  0  0  0
  -28.8646   16.3689  -16.3199 C   0  0  1  0  0  0  0  0  0  0  0  0
  -29.1140   17.3324  -17.3354 O   0  0  0  0  0  0  0  0  0  0  0  0
  -27.4908   16.0351  -16.3602 O   0  0  0  0  0  0  0  0  0  0  0  0
  -30.9922   17.9898  -13.7019 O   0  0  0  0  0  0  0  0  0  0  0  0
  -32.3848   18.5822  -16.1108 O   0  0  0  0  0  0  0  0  0  0  0  0
  -27.0189   16.8806  -16.4343 H   0  0  0  0  0  0  0  0  0  0  0  0
  -30.3323   18.7052  -13.6113 H   0  0  0  0  0  0  0  0  0  0  0  0
  -32.8470   17.7260  -16.0670 H   0  0  0  0  0  0  0  0  0  0  0  0
  2  7  1  0  0  0  0
  2  1  1  6  0  0  0
  2  3  1  0  0  0  0
  3 10  1  6  0  0  0
  3  4  1  0  0  0  0
  4  5  1  0  0  0  0
  4  9  1  1  0  0  0
  5  6  1  0  0  0  0
  6  7  1  0  0  0  0
  6  8  1  1  0  0  0
  8 11  1  0  0  0  0
  9 12  1  0  0  0  0
 10 13  1  0  0  0  0
M  END
>  <CHROM.0>
-61.11881173,177.66561012,-56.64034367,-42.30485343,-57.24137001,-64.00087467
-66.04519312,-58.11865105,-168.83584530

>  <CHROM.1>
71.04688368,-67.44478163,-75.77775735,-30.08346408,17.53505357,-16.16764373
3.03474978,-0.52691295,1.73770515

>  <Name>
P24228552

>  <RI>
0

>  <Rbt.Current_Directory>
/home/fstefaniak/projects/zuza/docking/adenine/4TZX

>  <Rbt.Executable>
rbdock ($Id: //depot/dev/client3/rdock/2013.1/src/exe/rbdock.cxx#4 $)

>  <Rbt.Library>
libRbt.so (2013.1, Build901 2013/11/27)

>  <Rbt.Parameter_File>
/home/fstefaniak/progs/rDock//data/scripts/dock_solv.prm

>  <Rbt.Receptor>
4tzx.prm

>  <SCORE>
-54.8339

>  <SCORE.INTER>
-34.9096

>  <SCORE.INTER.CONST>
1

>  <SCORE.INTER.POLAR>
-4.54604

>  <SCORE.INTER.ROT>
0

>  <SCORE.INTER.SOLV>
12.7072

>  <SCORE.INTER.VDW>
-15.9553

>  <SCORE.INTER.norm>
-3.49096

>  <SCORE.INTRA>
0.833774

>  <SCORE.INTRA.DIHEDRAL>
0.891295

>  <SCORE.INTRA.DIHEDRAL.0>
1.14076

>  <SCORE.INTRA.POLAR>
0.0425732

>  <SCORE.INTRA.POLAR.0>
-0.0425732

>  <SCORE.INTRA.REPUL>
0

>  <SCORE.INTRA.REPUL.0>
0

>  <SCORE.INTRA.SOLV>
-0.0246382

>  <SCORE.INTRA.SOLV.lig_0>
-16.9242

>  <SCORE.INTRA.VDW>
0.255696

>  <SCORE.INTRA.VDW.0>
0.328339

>  <SCORE.INTRA.norm>
0.0833774

>  <SCORE.RESTR>
0

>  <SCORE.RESTR.CAVITY>
0

>  <SCORE.RESTR.norm>
0

>  <SCORE.SYSTEM>
-20.7581

>  <SCORE.SYSTEM.CONST>
0

>  <SCORE.SYSTEM.DIHEDRAL>
4.443

>  <SCORE.SYSTEM.POLAR>
-3.08032

>  <SCORE.SYSTEM.SOLV>
0.176882

>  <SCORE.SYSTEM.VDW>
-5.11095

>  <SCORE.SYSTEM.norm>
-2.07581

>  <SCORE.heavy>
10

>  <SCORE.norm>
-5.48339

$$$$
P24240664
 OpenBabel12072022113D
libRbt.so/2013.1/901 2013/11/27
 15 14  0  0  0  0  0  0  0  0999 V2000
  -31.1414   18.1988  -13.4063 C   0  0  0  0  0  0  0  0  0  0  0  0
  -29.9075   17.6437  -14.0830 C   0  0  0  0  0  0  0  0  0  0  0  0
  -28.7001   17.7339  -13.5961 N   0  0  0  0  0  0  0  0  0  0  0  0
  -28.5320   18.3697  -12.3981 N   0  0  0  0  0  0  0  0  0  0  0  0
  -27.3887   19.0637  -12.0923 C   0  0  0  0  0  0  0  0  0  0  0  0
  -27.2388   19.6625  -11.0349 O   0  0  0  0  0  0  0  0  0  0  0  0
  -26.4354   19.0363  -13.0561 N   0  0  0  0  0  0  0  0  0  0  0  0
  -30.0728   16.9035  -15.4345 C   0  0  0  0  0  0  0  0  0  0  0  0
  -30.8420   17.7676  -16.4290 C   0  0  0  0  0  0  0  0  0  0  0  0
  -28.7162   16.4770  -15.9868 C   0  0  0  0  0  0  0  0  0  0  0  0
  -30.8317   15.7056  -15.2413 O   0  0  0  0  0  0  0  0  0  0  0  0
  -29.2580   18.3876  -11.6923 H   0  0  0  0  0  0  0  0  0  0  0  0
  -26.7822   19.1329  -14.0004 H   0  0  0  0  0  0  0  0  0  0  0  0
  -25.5360   19.4274  -12.8195 H   0  0  0  0  0  0  0  0  0  0  0  0
  -30.9398   15.3114  -16.1295 H   0  0  0  0  0  0  0  0  0  0  0  0
  1  2  1  0  0  0  0
  2  3  2  0  0  0  0
  2  8  1  0  0  0  0
  3  4  1  0  0  0  0
  4  5  1  0  0  0  0
  4 12  1  0  0  0  0
  5  6  2  0  0  0  0
  5  7  1  0  0  0  0
  7 13  1  0  0  0  0
  7 14  1  0  0  0  0
  8  9  1  0  0  0  0
  8 10  1  0  0  0  0
  8 11  1  0  0  0  0
 11 15  1  0  0  0  0
M  END
>  <CHROM.0>
-60.94938206,-62.33835781,-63.24498813,-42.40826794,-63.57543624,-157.58893878
-66.19632827,-61.32960969,-168.63838148

>  <CHROM.1>
52.90657329,-148.70693902,41.05995069,177.18169194,-29.06904447,17.86205198
-13.89015618,2.20421262,-0.11541103,-2.07749258

>  <Name>
P24240664

>  <RI>
0

>  <Rbt.Current_Directory>
/home/fstefaniak/projects/zuza/docking/adenine/4TZX

>  <Rbt.Executable>
rbdock ($Id: //depot/dev/client3/rdock/2013.1/src/exe/rbdock.cxx#4 $)

>  <Rbt.Library>
libRbt.so (2013.1, Build901 2013/11/27)

>  <Rbt.Parameter_File>
/home/fstefaniak/progs/rDock//data/scripts/dock_solv.prm

>  <Rbt.Receptor>
4tzx.prm

>  <SCORE>
-49.4006

>  <SCORE.INTER>
-30.6326

>  <SCORE.INTER.CONST>
1

>  <SCORE.INTER.POLAR>
-4.29602

>  <SCORE.INTER.ROT>
3

>  <SCORE.INTER.SOLV>
17.6186

>  <SCORE.INTER.VDW>
-17.5745

>  <SCORE.INTER.norm>
-2.78478

>  <SCORE.INTRA>
1.33154

>  <SCORE.INTRA.DIHEDRAL>
-2.591

>  <SCORE.INTRA.DIHEDRAL.0>
5.46719

>  <SCORE.INTRA.POLAR>
0.325193

>  <SCORE.INTRA.POLAR.0>
-0.325193

>  <SCORE.INTRA.REPUL>
0

>  <SCORE.INTRA.REPUL.0>
0

>  <SCORE.INTRA.SOLV>
0.000544322

>  <SCORE.INTRA.SOLV.lig_0>
-19.7974

>  <SCORE.INTRA.VDW>
1.52111

>  <SCORE.INTRA.VDW.0>
2.46297

>  <SCORE.INTRA.norm>
0.121049

>  <SCORE.RESTR>
0

>  <SCORE.RESTR.CAVITY>
0

>  <SCORE.RESTR.norm>
0

>  <SCORE.SYSTEM>
-20.0995

>  <SCORE.SYSTEM.CONST>
0

>  <SCORE.SYSTEM.DIHEDRAL>
6.43439

>  <SCORE.SYSTEM.POLAR>
-3.0571

>  <SCORE.SYSTEM.SOLV>
0.0726857

>  <SCORE.SYSTEM.VDW>
-5.37835

>  <SCORE.SYSTEM.norm>
-1.82723

>  <SCORE.heavy>
11

>  <SCORE.norm>
-4.49096

$$$$
P24240664
 OpenBabel12072022113D
libRbt.so/2013.1/901 2013/11/27
 15 14  0  0  0  0  0  0  0  0999 V2000
  -31.1277   18.1902  -13.4827 C   0  0  0  0  0  0  0  0  0  0  0  0
  -29.8912   17.6048  -14.1285 C   0  0  0  0  0  0  0  0  0  0  0  0
  -28.6904   17.6886  -13.6244 N   0  0  0  0  0  0  0  0  0  0  0  0
  -28.5322   18.3464  -12.4370 N   0  0  0  0  0  0  0  0  0  0  0  0
  -27.3985   19.0605  -12.1416 C   0  0  0  0  0  0  0  0  0  0  0  0
  -27.2578   19.6788  -11.0942 O   0  0  0  0  0  0  0  0  0  0  0  0
  -26.4438   19.0297  -13.1039 N   0  0  0  0  0  0  0  0  0  0  0  0
  -30.0457   16.8394  -15.4671 C   0  0  0  0  0  0  0  0  0  0  0  0
  -30.8039   17.6860  -16.4848 C   0  0  0  0  0  0  0  0  0  0  0  0
  -28.6850   16.4000  -15.9988 C   0  0  0  0  0  0  0  0  0  0  0  0
  -30.8089   15.6469  -15.2583 O   0  0  0  0  0  0  0  0  0  0  0  0
  -29.2592   18.3665  -11.7323 H   0  0  0  0  0  0  0  0  0  0  0  0
  -26.7848   19.1621  -14.0460 H   0  0  0  0  0  0  0  0  0  0  0  0
  -25.5335   19.3866  -12.8551 H   0  0  0  0  0  0  0  0  0  0  0  0
  -30.9212   15.2432  -16.1417 H   0  0  0  0  0  0  0  0  0  0  0  0
  1  2  1  0  0  0  0
  2  3  2  0  0  0  0
  2  8  1  0  0  0  0
  3  4  1  0  0  0  0
  4  5  1  0  0  0  0
  4 12  1  0  0  0  0
  5  6  2  0  0  0  0
  5  7  1  0  0  0  0
  7 13  1  0  0  0  0
  7 14  1  0  0  0  0
  8  9  1  0  0  0  0
  8 10  1  0  0  0  0
  8 11  1  0  0  0  0
 11 15  1  0  0  0  0
M  END
>  <CHROM.0>
-62.50959985,-63.45001966,-65.92169273,-44.86351446,-60.15382353,-159.09271926
-62.19543772,-176.33507750,-168.53151611

>  <CHROM.1>
52.13749940,-146.93970542,44.59421360,176.34815505,-29.05808855,17.82672008
-13.93200975,2.19463656,-0.11007446,-2.09744031

>  <Name>
P24240664

>  <RI>
0

>  <Rbt.Current_Directory>
/home/fstefaniak/projects/zuza/docking/adenine/4TZX

>  <Rbt.Executable>
rbdock ($Id: //depot/dev/client3/rdock/2013.1/src/exe/rbdock.cxx#4 $)

>  <Rbt.Library>
libRbt.so (2013.1, Build901 2013/11/27)

>  <Rbt.Parameter_File>
/home/fstefaniak/progs/rDock//data/scripts/dock_solv.prm

>  <Rbt.Receptor>
4tzx.prm

>  <SCORE>
-49.1784

>  <SCORE.INTER>
-30.5184

>  <SCORE.INTER.CONST>
1

>  <SCORE.INTER.POLAR>
-4.28957

>  <SCORE.INTER.ROT>
3

>  <SCORE.INTER.SOLV>
17.6185

>  <SCORE.INTER.VDW>
-17.5199

>  <SCORE.INTER.norm>
-2.7744

>  <SCORE.INTRA>
1.42703

>  <SCORE.INTRA.DIHEDRAL>
-2.39012

>  <SCORE.INTRA.DIHEDRAL.0>
5.46719

>  <SCORE.INTRA.POLAR>
0.325193

>  <SCORE.INTRA.POLAR.0>
-0.325193

>  <SCORE.INTRA.REPUL>
0

>  <SCORE.INTRA.REPUL.0>
0

>  <SCORE.INTRA.SOLV>
0.00364552

>  <SCORE.INTRA.SOLV.lig_0>
-19.7974

>  <SCORE.INTRA.VDW>
1.51461

>  <SCORE.INTRA.VDW.0>
2.46297

>  <SCORE.INTRA.norm>
0.12973

>  <SCORE.RESTR>
0

>  <SCORE.RESTR.CAVITY>
0

>  <SCORE.RESTR.norm>
0

>  <SCORE.SYSTEM>
-20.087

>  <SCORE.SYSTEM.CONST>
0

>  <SCORE.SYSTEM.DIHEDRAL>
5.87679

>  <SCORE.SYSTEM.POLAR>
-2.98897

>  <SCORE.SYSTEM.SOLV>
-0.0559319

>  <SCORE.SYSTEM.VDW>
-5.36839

>  <SCORE.SYSTEM.norm>
-1.82609

>  <SCORE.heavy>
11

>  <SCORE.norm>
-4.47076

$$$$
P24240664
 OpenBabel12072022113D
libRbt.so/2013.1/901 2013/11/27
 15 14  0  0  0  0  0  0  0  0999 V2000
  -31.0828   18.1952  -13.3860 C   0  0  0  0  0  0  0  0  0  0  0  0
  -29.8604   17.6303  -14.0755 C   0  0  0  0  0  0  0  0  0  0  0  0
  -28.6460   17.7200  -13.6062 N   0  0  0  0  0  0  0  0  0  0  0  0
  -28.4590   18.3645  -12.4157 N   0  0  0  0  0  0  0  0  0  0  0  0
  -27.3342   19.1053  -12.1537 C   0  0  0  0  0  0  0  0  0  0  0  0
  -27.1691   19.7119  -11.1031 O   0  0  0  0  0  0  0  0  0  0  0  0
  -26.4177   19.1151  -13.1529 N   0  0  0  0  0  0  0  0  0  0  0  0
  -30.0472   16.8803  -15.4187 C   0  0  0  0  0  0  0  0  0  0  0  0
  -30.7379   17.7763  -16.4421 C   0  0  0  0  0  0  0  0  0  0  0  0
  -28.7110   16.3566  -15.9359 C   0  0  0  0  0  0  0  0  0  0  0  0
  -30.8872   15.7381  -15.2232 O   0  0  0  0  0  0  0  0  0  0  0  0
  -29.1579   18.3542  -11.6830 H   0  0  0  0  0  0  0  0  0  0  0  0
  -25.5002   19.4438  -12.8853 H   0  0  0  0  0  0  0  0  0  0  0  0
  -26.4972   18.3921  -13.8521 H   0  0  0  0  0  0  0  0  0  0  0  0
  -30.9608   15.3074  -16.0979 H   0  0  0  0  0  0  0  0  0  0  0  0
  1  2  1  0  0  0  0
  2  3  2  0  0  0  0
  2  8  1  0  0  0  0
  3  4  1  0  0  0  0
  4  5  1  0  0  0  0
  4 12  1  0  0  0  0
  5  6  2  0  0  0  0
  5  7  1  0  0  0  0
  7 13  1  0  0  0  0
  7 14  1  0  0  0  0
  8  9  1  0  0  0  0
  8 10  1  0  0  0  0
  8 11  1  0  0  0  0
 11 15  1  0  0  0  0
M  END
>  <CHROM.0>
-58.96566042,-171.01341008,-69.40724164,-42.30386628,-173.74577896,-154.07336273
-64.73485254,61.78178427,-167.88990803

>  <CHROM.1>
57.01042303,-145.79107755,-164.59071783,-179.60838806,-29.02689121,17.86021276
-13.90273959,2.21349646,-0.12900009,-2.08835871

>  <Name>
P24240664

>  <RI>
0

>  <Rbt.Current_Directory>
/home/fstefaniak/projects/zuza/docking/adenine/4TZX

>  <Rbt.Executable>
rbdock ($Id: //depot/dev/client3/rdock/2013.1/src/exe/rbdock.cxx#4 $)

>  <Rbt.Library>
libRbt.so (2013.1, Build901 2013/11/27)

>  <Rbt.Parameter_File>
/home/fstefaniak/progs/rDock//data/scripts/dock_solv.prm

>  <Rbt.Receptor>
4tzx.prm

>  <SCORE>
-48.877

>  <SCORE.INTER>
-31.2511

>  <SCORE.INTER.CONST>
1

>  <SCORE.INTER.POLAR>
-4.35397

>  <SCORE.INTER.ROT>
3

>  <SCORE.INTER.SOLV>
17.5809

>  <SCORE.INTER.VDW>
-17.7812

>  <SCORE.INTER.norm>
-2.84101

>  <SCORE.INTRA>
1.07146

>  <SCORE.INTRA.DIHEDRAL>
-2.33798

>  <SCORE.INTRA.DIHEDRAL.0>
5.46719

>  <SCORE.INTRA.POLAR>
0.288505

>  <SCORE.INTRA.POLAR.0>
-0.325193

>  <SCORE.INTRA.REPUL>
0

>  <SCORE.INTRA.REPUL.0>
0

>  <SCORE.INTRA.SOLV>
0.0299081

>  <SCORE.INTRA.SOLV.lig_0>
-19.7974

>  <SCORE.INTRA.VDW>
1.24458

>  <SCORE.INTRA.VDW.0>
2.46297

>  <SCORE.INTRA.norm>
0.0974053

>  <SCORE.RESTR>
0

>  <SCORE.RESTR.CAVITY>
0

>  <SCORE.RESTR.norm>
0

>  <SCORE.SYSTEM>
-18.6973

>  <SCORE.SYSTEM.CONST>
0

>  <SCORE.SYSTEM.DIHEDRAL>
7.8663

>  <SCORE.SYSTEM.POLAR>
-3.0557

>  <SCORE.SYSTEM.SOLV>
-0.309712

>  <SCORE.SYSTEM.VDW>
-4.79806

>  <SCORE.SYSTEM.norm>
-1.69975

>  <SCORE.heavy>
11

>  <SCORE.norm>
-4.44336

$$$$
P24243466
 OpenBabel12072022113D
libRbt.so/2013.1/901 2013/11/27
 14 14  0  0  0  0  0  0  0  0999 V2000
  -29.8461   15.1460  -16.1584 C   0  0  0  0  0  0  0  0  0  0  0  0
  -28.3695   15.1778  -15.7830 C   0  0  0  0  0  0  0  0  0  0  0  0
  -27.7494   16.5434  -16.0681 C   0  0  0  0  0  0  0  0  0  0  0  0
  -28.5279   17.6879  -15.4102 C   0  0  1  0  0  0  0  0  0  0  0  0
  -30.0359   17.6455  -15.7005 C   0  0  2  0  0  0  0  0  0  0  0  0
  -30.6270   16.2489  -15.4479 C   0  0  0  0  0  0  0  0  0  0  0  0
  -30.3415   18.1528  -17.1043 C   0  0  0  0  0  0  0  0  0  0  0  0
  -29.6627   17.8979  -18.0977 O   0  0  0  0  0  0  0  0  0  0  0  0
  -31.4549   18.9577  -17.1892 N   0  0  0  0  0  0  0  0  0  0  0  0
  -32.5156   18.4441  -17.9726 O   0  0  0  0  0  0  0  0  0  0  0  0
  -28.3531   17.6132  -13.9895 O   0  0  0  0  0  0  0  0  0  0  0  0
  -31.4032   19.9682  -17.1106 H   0  0  0  0  0  0  0  0  0  0  0  0
  -32.3898   18.9104  -18.8288 H   0  0  0  0  0  0  0  0  0  0  0  0
  -28.8337   18.3641  -13.5984 H   0  0  0  0  0  0  0  0  0  0  0  0
  1  2  1  0  0  0  0
  1  6  1  0  0  0  0
  2  3  1  0  0  0  0
  3  4  1  0  0  0  0
  4  5  1  0  0  0  0
  4 11  1  1  0  0  0
  5  6  1  0  0  0  0
  5  7  1  6  0  0  0
  7  8  2  0  0  0  0
  7  9  1  0  0  0  0
  9 10  1  0  0  0  0
  9 12  1  0  0  0  0
 10 13  1  0  0  0  0
 11 14  1  0  0  0  0
M  END
>  <CHROM.0>
-58.36646410,-176.17262109,-60.11553401,-44.79028596,-57.67243872,-62.37097710
-68.28545644,-179.09489425,-168.48652072

>  <CHROM.1>
178.32470423,40.21342666,-116.13632711,-98.85448162,-29.80608097,17.27450113
-16.28418246,0.33260579,0.74490772,-2.89960654

>  <Name>
P24243466

>  <RI>
0

>  <Rbt.Current_Directory>
/home/fstefaniak/projects/zuza/docking/adenine/4TZX

>  <Rbt.Executable>
rbdock ($Id: //depot/dev/client3/rdock/2013.1/src/exe/rbdock.cxx#4 $)

>  <Rbt.Library>
libRbt.so (2013.1, Build901 2013/11/27)

>  <Rbt.Parameter_File>
/home/fstefaniak/progs/rDock//data/scripts/dock_solv.prm

>  <Rbt.Receptor>
4tzx.prm

>  <SCORE>
-51.7246

>  <SCORE.INTER>
-30.2042

>  <SCORE.INTER.CONST>
1

>  <SCORE.INTER.POLAR>
-5.67939

>  <SCORE.INTER.ROT>
2

>  <SCORE.INTER.SOLV>
14.5931

>  <SCORE.INTER.VDW>
-11.0025

>  <SCORE.INTER.norm>
-2.74583

>  <SCORE.INTRA>
-0.718541

>  <SCORE.INTRA.DIHEDRAL>
2.0112

>  <SCORE.INTRA.DIHEDRAL.0>
1.64153

>  <SCORE.INTRA.POLAR>
0

>  <SCORE.INTRA.POLAR.0>
0

>  <SCORE.INTRA.REPUL>
0

>  <SCORE.INTRA.REPUL.0>
0

>  <SCORE.INTRA.SOLV>
0.006685

>  <SCORE.INTRA.SOLV.lig_0>
-18.8194

>  <SCORE.INTRA.VDW>
-1.72749

>  <SCORE.INTRA.VDW.0>
0.490446

>  <SCORE.INTRA.norm>
-0.065322

>  <SCORE.RESTR>
0

>  <SCORE.RESTR.CAVITY>
0

>  <SCORE.RESTR.norm>
0

>  <SCORE.SYSTEM>
-20.8019

>  <SCORE.SYSTEM.CONST>
0

>  <SCORE.SYSTEM.DIHEDRAL>
4.20379

>  <SCORE.SYSTEM.POLAR>
-3.02066

>  <SCORE.SYSTEM.SOLV>
0.0272291

>  <SCORE.SYSTEM.VDW>
-5.20942

>  <SCORE.SYSTEM.norm>
-1.89108

>  <SCORE.heavy>
11

>  <SCORE.norm>
-4.70224

$$$$
P24243466
 OpenBabel12072022113D
libRbt.so/2013.1/901 2013/11/27
 14 14  0  0  0  0  0  0  0  0999 V2000
  -29.8158   15.1163  -16.1786 C   0  0  0  0  0  0  0  0  0  0  0  0
  -28.3441   15.1840  -15.7892 C   0  0  0  0  0  0  0  0  0  0  0  0
  -27.7556   16.5654  -16.0651 C   0  0  0  0  0  0  0  0  0  0  0  0
  -28.5687   17.6883  -15.4118 C   0  0  1  0  0  0  0  0  0  0  0  0
  -30.0723   17.6091  -15.7165 C   0  0  2  0  0  0  0  0  0  0  0  0
  -30.6307   16.1975  -15.4729 C   0  0  0  0  0  0  0  0  0  0  0  0
  -30.3773   18.1123  -17.1219 C   0  0  0  0  0  0  0  0  0  0  0  0
  -29.7170   17.8277  -18.1197 O   0  0  0  0  0  0  0  0  0  0  0  0
  -31.4668   18.9497  -17.2030 N   0  0  0  0  0  0  0  0  0  0  0  0
  -32.5336   18.4800  -18.0053 O   0  0  0  0  0  0  0  0  0  0  0  0
  -28.4054   17.6142  -13.9897 O   0  0  0  0  0  0  0  0  0  0  0  0
  -31.3874   19.9568  -17.1062 H   0  0  0  0  0  0  0  0  0  0  0  0
  -32.5262   19.1131  -18.7571 H   0  0  0  0  0  0  0  0  0  0  0  0
  -28.8920   18.3633  -13.6026 H   0  0  0  0  0  0  0  0  0  0  0  0
  1  2  1  0  0  0  0
  1  6  1  0  0  0  0
  2  3  1  0  0  0  0
  3  4  1  0  0  0  0
  4  5  1  0  0  0  0
  4 11  1  1  0  0  0
  5  6  1  0  0  0  0
  5  7  1  6  0  0  0
  7  8  2  0  0  0  0
  7  9  1  0  0  0  0
  9 10  1  0  0  0  0
  9 12  1  0  0  0  0
 10 13  1  0  0  0  0
 11 14  1  0  0  0  0
M  END
>  <CHROM.0>
-63.26262654,-179.16796028,-67.36058829,-43.36337073,-63.19017154,-56.21432770
-67.40486969,-177.84334584,-169.01644645

>  <CHROM.1>
177.10188065,43.64323675,-118.06315427,-112.60344811,-29.82575271,17.26099770
-16.29749828,0.29013243,0.76134965,-2.83325479

>  <Name>
P24243466

>  <RI>
0

>  <Rbt.Current_Directory>
/home/fstefaniak/projects/zuza/docking/adenine/4TZX

>  <Rbt.Executable>
rbdock ($Id: //depot/dev/client3/rdock/2013.1/src/exe/rbdock.cxx#4 $)

>  <Rbt.Library>
libRbt.so (2013.1, Build901 2013/11/27)

>  <Rbt.Parameter_File>
/home/fstefaniak/progs/rDock//data/scripts/dock_solv.prm

>  <Rbt.Receptor>
4tzx.prm

>  <SCORE>
-51.5962

>  <SCORE.INTER>
-30.1548

>  <SCORE.INTER.CONST>
1

>  <SCORE.INTER.POLAR>
-5.66245

>  <SCORE.INTER.ROT>
2

>  <SCORE.INTER.SOLV>
14.5628

>  <SCORE.INTER.VDW>
-11.016

>  <SCORE.INTER.norm>
-2.74135

>  <SCORE.INTRA>
-0.500385

>  <SCORE.INTRA.DIHEDRAL>
2.47705

>  <SCORE.INTRA.DIHEDRAL.0>
1.64153

>  <SCORE.INTRA.POLAR>
0

>  <SCORE.INTRA.POLAR.0>
0

>  <SCORE.INTRA.REPUL>
0

>  <SCORE.INTRA.REPUL.0>
0

>  <SCORE.INTRA.SOLV>
-0.023943

>  <SCORE.INTRA.SOLV.lig_0>
-18.8194

>  <SCORE.INTRA.VDW>
-1.72694

>  <SCORE.INTRA.VDW.0>
0.490446

>  <SCORE.INTRA.norm>
-0.0454896

>  <SCORE.RESTR>
0

>  <SCORE.RESTR.CAVITY>
0

>  <SCORE.RESTR.norm>
0

>  <SCORE.SYSTEM>
-20.941

>  <SCORE.SYSTEM.CONST>
0

>  <SCORE.SYSTEM.DIHEDRAL>
4.57763

>  <SCORE.SYSTEM.POLAR>
-3.03787

>  <SCORE.SYSTEM.SOLV>
0.0196493

>  <SCORE.SYSTEM.VDW>
-5.36687

>  <SCORE.SYSTEM.norm>
-1.90373

>  <SCORE.heavy>
11

>  <SCORE.norm>
-4.69057

$$$$
P24243466
 OpenBabel12072022113D
libRbt.so/2013.1/901 2013/11/27
 14 14  0  0  0  0  0  0  0  0999 V2000
  -29.8424   15.1588  -16.1946 C   0  0  0  0  0  0  0  0  0  0  0  0
  -28.3683   15.1894  -15.8096 C   0  0  0  0  0  0  0  0  0  0  0  0
  -27.7492   16.5593  -16.0757 C   0  0  0  0  0  0  0  0  0  0  0  0
  -28.5342   17.6949  -15.4101 C   0  0  1  0  0  0  0  0  0  0  0  0
  -30.0402   17.6527  -15.7104 C   0  0  2  0  0  0  0  0  0  0  0  0
  -30.6301   16.2523  -15.4770 C   0  0  0  0  0  0  0  0  0  0  0  0
  -30.3380   18.1748  -17.1105 C   0  0  0  0  0  0  0  0  0  0  0  0
  -29.6542   17.9296  -18.1029 O   0  0  0  0  0  0  0  0  0  0  0  0
  -31.4503   18.9817  -17.1928 N   0  0  0  0  0  0  0  0  0  0  0  0
  -32.5083   18.4761  -17.9850 O   0  0  0  0  0  0  0  0  0  0  0  0
  -28.3682   17.6049  -13.9893 O   0  0  0  0  0  0  0  0  0  0  0  0
  -31.3978   19.9913  -17.1051 H   0  0  0  0  0  0  0  0  0  0  0  0
  -32.4802   19.0630  -18.7730 H   0  0  0  0  0  0  0  0  0  0  0  0
  -28.8597   18.3456  -13.5924 H   0  0  0  0  0  0  0  0  0  0  0  0
  1  2  1  0  0  0  0
  1  6  1  0  0  0  0
  2  3  1  0  0  0  0
  3  4  1  0  0  0  0
  4  5  1  0  0  0  0
  4 11  1  1  0  0  0
  5  6  1  0  0  0  0
  5  7  1  6  0  0  0
  7  8  2  0  0  0  0
  7  9  1  0  0  0  0
  9 10  1  0  0  0  0
  9 12  1  0  0  0  0
 10 13  1  0  0  0  0
 11 14  1  0  0  0  0
M  END
>  <CHROM.0>
-59.77563754,-175.29317560,-53.13506999,-43.84848795,-57.17556864,-56.98520498
-65.69948574,-59.16906765,-169.01180759

>  <CHROM.1>
178.84910865,40.39692152,-116.02113723,-108.71214096,-29.80671838,17.28983898
-16.29584449,0.32913796,0.74970713,-2.88441895

>  <Name>
P24243466

>  <RI>
0

>  <Rbt.Current_Directory>
/home/fstefaniak/projects/zuza/docking/adenine/4TZX

>  <Rbt.Executable>
rbdock ($Id: //depot/dev/client3/rdock/2013.1/src/exe/rbdock.cxx#4 $)

>  <Rbt.Library>
libRbt.so (2013.1, Build901 2013/11/27)

>  <Rbt.Parameter_File>
/home/fstefaniak/progs/rDock//data/scripts/dock_solv.prm

>  <Rbt.Receptor>
4tzx.prm

>  <SCORE>
-51.3654

>  <SCORE.INTER>
-30.0146

>  <SCORE.INTER.CONST>
1

>  <SCORE.INTER.POLAR>
-5.63257

>  <SCORE.INTER.ROT>
2

>  <SCORE.INTER.SOLV>
14.6372

>  <SCORE.INTER.VDW>
-11.0469

>  <SCORE.INTER.norm>
-2.7286

>  <SCORE.INTRA>
-0.630321

>  <SCORE.INTRA.DIHEDRAL>
2.14706

>  <SCORE.INTRA.DIHEDRAL.0>
1.64153

>  <SCORE.INTRA.POLAR>
0

>  <SCORE.INTRA.POLAR.0>
0

>  <SCORE.INTRA.REPUL>
0

>  <SCORE.INTRA.REPUL.0>
0

>  <SCORE.INTRA.SOLV>
-0.000569759

>  <SCORE.INTRA.SOLV.lig_0>
-18.8194

>  <SCORE.INTRA.VDW>
-1.70356

>  <SCORE.INTRA.VDW.0>
0.490446

>  <SCORE.INTRA.norm>
-0.0573019

>  <SCORE.RESTR>
0

>  <SCORE.RESTR.CAVITY>
0

>  <SCORE.RESTR.norm>
0

>  <SCORE.SYSTEM>
-20.7205

>  <SCORE.SYSTEM.CONST>
0

>  <SCORE.SYSTEM.DIHEDRAL>
4.38237

>  <SCORE.SYSTEM.POLAR>
-3.09194

>  <SCORE.SYSTEM.SOLV>
0.185412

>  <SCORE.SYSTEM.VDW>
-5.0298

>  <SCORE.SYSTEM.norm>
-1.88368

>  <SCORE.heavy>
11

>  <SCORE.norm>
-4.66958

$$$$
P24318520
 OpenBabel12072022113D
libRbt.so/2013.1/901 2013/11/27
 12 11  0  0  0  0  0  0  0  0999 V2000
  -29.2929   17.4385  -15.7862 C   0  0  0  0  0  0  0  0  0  0  0  0
  -28.7551   16.0887  -16.2311 C   0  0  0  0  0  0  0  0  0  0  0  0
  -26.9787   16.1334  -16.3480 Cl  0  0  0  0  0  0  0  0  0  0  0  0
  -30.7738   17.3492  -15.4947 C   0  0  0  0  0  0  0  0  0  0  0  0
  -31.2202   16.8375  -14.4666 O   0  0  0  0  0  0  0  0  0  0  0  0
  -31.6595   17.8500  -16.4205 N   0  0  0  0  0  0  0  0  0  0  0  0
  -31.4206   18.2572  -17.7075 C   0  0  0  0  0  0  0  0  0  0  0  0
  -30.3390   18.3040  -18.2724 O   0  0  0  0  0  0  0  0  0  0  0  0
  -32.5588   18.6296  -18.3591 N   0  0  0  0  0  0  0  0  0  0  0  0
  -32.6228   17.6936  -16.1701 H   0  0  0  0  0  0  0  0  0  0  0  0
  -32.5829   19.5312  -18.8148 H   0  0  0  0  0  0  0  0  0  0  0  0
  -32.9706   17.8779  -18.9022 H   0  0  0  0  0  0  0  0  0  0  0  0
  1  2  1  0  0  0  0
  1  4  1  0  0  0  0
  2  3  1  0  0  0  0
  4  5  2  0  0  0  0
  4  6  1  0  0  0  0
  6  7  1  0  0  0  0
  6 10  1  0  0  0  0
  7  8  2  0  0  0  0
  7  9  1  0  0  0  0
  9 11  1  0  0  0  0
  9 12  1  0  0  0  0
M  END
>  <CHROM.0>
-61.41320384,-58.31727181,-65.56876614,-40.03335118,-177.71261018,-175.97492610
-66.26065500,-58.39404451,-168.93989375

>  <CHROM.1>
-171.86694800,76.35390974,128.10678398,-29.89464361,17.25948701,-16.55598030
0.38982173,-0.31880511,1.93358051

>  <Name>
P24318520

>  <RI>
0

>  <Rbt.Current_Directory>
/home/fstefaniak/projects/zuza/docking/adenine/4TZX

>  <Rbt.Executable>
rbdock ($Id: //depot/dev/client3/rdock/2013.1/src/exe/rbdock.cxx#4 $)

>  <Rbt.Library>
libRbt.so (2013.1, Build901 2013/11/27)

>  <Rbt.Parameter_File>
/home/fstefaniak/progs/rDock//data/scripts/dock_solv.prm

>  <Rbt.Receptor>
4tzx.prm

>  <SCORE>
-52.4326

>  <SCORE.INTER>
-31.2235

>  <SCORE.INTER.CONST>
1

>  <SCORE.INTER.POLAR>
-4.55291

>  <SCORE.INTER.ROT>
3

>  <SCORE.INTER.SOLV>
12.1848

>  <SCORE.INTER.VDW>
-15.3009

>  <SCORE.INTER.norm>
-3.46928

>  <SCORE.INTRA>
-0.204887

>  <SCORE.INTRA.DIHEDRAL>
1.57719

>  <SCORE.INTRA.DIHEDRAL.0>
1.59869

>  <SCORE.INTRA.POLAR>
0

>  <SCORE.INTRA.POLAR.0>
0

>  <SCORE.INTRA.REPUL>
0

>  <SCORE.INTRA.REPUL.0>
0

>  <SCORE.INTRA.SOLV>
0.168559

>  <SCORE.INTRA.SOLV.lig_0>
-18.6713

>  <SCORE.INTRA.VDW>
-1.07776

>  <SCORE.INTRA.VDW.0>
0.262432

>  <SCORE.INTRA.norm>
-0.0227652

>  <SCORE.RESTR>
0

>  <SCORE.RESTR.CAVITY>
0

>  <SCORE.RESTR.norm>
0

>  <SCORE.SYSTEM>
-21.0043

>  <SCORE.SYSTEM.CONST>
0

>  <SCORE.SYSTEM.DIHEDRAL>
4.85822

>  <SCORE.SYSTEM.POLAR>
-3.08513

>  <SCORE.SYSTEM.SOLV>
-0.107589

>  <SCORE.SYSTEM.VDW>
-5.30262

>  <SCORE.SYSTEM.norm>
-2.33381

>  <SCORE.heavy>
9

>  <SCORE.norm>
-5.82585

$$$$
P24318520
 OpenBabel12072022113D
libRbt.so/2013.1/901 2013/11/27
 12 11  0  0  0  0  0  0  0  0999 V2000
  -29.4092   17.6984  -15.8631 C   0  0  0  0  0  0  0  0  0  0  0  0
  -28.5786   16.4440  -15.6497 C   0  0  0  0  0  0  0  0  0  0  0  0
  -29.2281   15.0951  -16.6141 Cl  0  0  0  0  0  0  0  0  0  0  0  0
  -30.8719   17.4161  -15.6042 C   0  0  0  0  0  0  0  0  0  0  0  0
  -31.2654   16.7987  -14.6133 O   0  0  0  0  0  0  0  0  0  0  0  0
  -31.8005   17.8570  -16.5184 N   0  0  0  0  0  0  0  0  0  0  0  0
  -31.5971   18.3601  -17.7773 C   0  0  0  0  0  0  0  0  0  0  0  0
  -30.5224   18.5675  -18.3187 O   0  0  0  0  0  0  0  0  0  0  0  0
  -32.7640   18.6284  -18.4291 N   0  0  0  0  0  0  0  0  0  0  0  0
  -32.7407   17.5726  -16.2946 H   0  0  0  0  0  0  0  0  0  0  0  0
  -32.8526   19.5061  -18.9221 H   0  0  0  0  0  0  0  0  0  0  0  0
  -33.1305   17.8287  -18.9347 H   0  0  0  0  0  0  0  0  0  0  0  0
  1  2  1  0  0  0  0
  1  4  1  0  0  0  0
  2  3  1  0  0  0  0
  4  5  2  0  0  0  0
  4  6  1  0  0  0  0
  6  7  1  0  0  0  0
  6 10  1  0  0  0  0
  7  8  2  0  0  0  0
  7  9  1  0  0  0  0
  9 11  1  0  0  0  0
  9 12  1  0  0  0  0
M  END
>  <CHROM.0>
-54.05045461,-56.12824845,-65.50650019,-43.49149866,-59.10087345,-64.62051624
-68.15792520,-61.04554904,-169.09034943

>  <CHROM.1>
53.30766472,46.60392908,134.65459191,-30.50076948,17.10895286,-16.62385137
0.60112334,-0.69648091,1.79510647

>  <Name>
P24318520

>  <RI>
0

>  <Rbt.Current_Directory>
/home/fstefaniak/projects/zuza/docking/adenine/4TZX

>  <Rbt.Executable>
rbdock ($Id: //depot/dev/client3/rdock/2013.1/src/exe/rbdock.cxx#4 $)

>  <Rbt.Library>
libRbt.so (2013.1, Build901 2013/11/27)

>  <Rbt.Parameter_File>
/home/fstefaniak/progs/rDock//data/scripts/dock_solv.prm

>  <Rbt.Receptor>
4tzx.prm

>  <SCORE>
-52.0218

>  <SCORE.INTER>
-31.1877

>  <SCORE.INTER.CONST>
1

>  <SCORE.INTER.POLAR>
-4.78532

>  <SCORE.INTER.ROT>
3

>  <SCORE.INTER.SOLV>
12.4839

>  <SCORE.INTER.VDW>
-14.6021

>  <SCORE.INTER.norm>
-3.4653

>  <SCORE.INTRA>
0.17098

>  <SCORE.INTRA.DIHEDRAL>
1.61607

>  <SCORE.INTRA.DIHEDRAL.0>
1.59869

>  <SCORE.INTRA.POLAR>
0

>  <SCORE.INTRA.POLAR.0>
0

>  <SCORE.INTRA.REPUL>
0

>  <SCORE.INTRA.REPUL.0>
0

>  <SCORE.INTRA.SOLV>
0.540977

>  <SCORE.INTRA.SOLV.lig_0>
-18.6713

>  <SCORE.INTRA.VDW>
-0.907545

>  <SCORE.INTRA.VDW.0>
0.262432

>  <SCORE.INTRA.norm>
0.0189977

>  <SCORE.RESTR>
0

>  <SCORE.RESTR.CAVITY>
0

>  <SCORE.RESTR.norm>
0

>  <SCORE.SYSTEM>
-21.0051

>  <SCORE.SYSTEM.CONST>
0

>  <SCORE.SYSTEM.DIHEDRAL>
4.65216

>  <SCORE.SYSTEM.POLAR>
-3.08892

>  <SCORE.SYSTEM.SOLV>
0.186533

>  <SCORE.SYSTEM.VDW>
-5.31986

>  <SCORE.SYSTEM.norm>
-2.3339

>  <SCORE.heavy>
9

>  <SCORE.norm>
-5.7802

$$$$
P24318520
 OpenBabel12072022113D
libRbt.so/2013.1/901 2013/11/27
 12 11  0  0  0  0  0  0  0  0999 V2000
  -29.4002   17.6661  -16.0108 C   0  0  0  0  0  0  0  0  0  0  0  0
  -28.5225   16.4744  -15.6669 C   0  0  0  0  0  0  0  0  0  0  0  0
  -29.1915   14.9831  -16.3740 Cl  0  0  0  0  0  0  0  0  0  0  0  0
  -30.8512   17.3581  -15.7175 C   0  0  0  0  0  0  0  0  0  0  0  0
  -31.2084   16.7137  -14.7301 O   0  0  0  0  0  0  0  0  0  0  0  0
  -31.8109   17.8062  -16.5953 N   0  0  0  0  0  0  0  0  0  0  0  0
  -31.6498   18.3396  -17.8478 C   0  0  0  0  0  0  0  0  0  0  0  0
  -30.5937   18.5736  -18.4143 O   0  0  0  0  0  0  0  0  0  0  0  0
  -32.8381   18.6061  -18.4606 N   0  0  0  0  0  0  0  0  0  0  0  0
  -32.7407   17.5041  -16.3518 H   0  0  0  0  0  0  0  0  0  0  0  0
  -32.9373   19.4745  -18.9681 H   0  0  0  0  0  0  0  0  0  0  0  0
  -33.2308   17.7999  -18.9353 H   0  0  0  0  0  0  0  0  0  0  0  0
  1  2  1  0  0  0  0
  1  4  1  0  0  0  0
  2  3  1  0  0  0  0
  4  5  2  0  0  0  0
  4  6  1  0  0  0  0
  6  7  1  0  0  0  0
  6 10  1  0  0  0  0
  7  8  2  0  0  0  0
  7  9  1  0  0  0  0
  9 11  1  0  0  0  0
  9 12  1  0  0  0  0
M  END
>  <CHROM.0>
-59.18669656,-62.24651295,-52.62413964,-43.38015312,-179.16483738,-61.41558700
-67.40502834,-58.12442210,-166.81537195

>  <CHROM.1>
48.89721351,38.87139299,137.49586038,-30.49926381,17.06012613,-16.63067881
-0.71122071,0.60859811,-1.21068219

>  <Name>
P24318520

>  <RI>
0

>  <Rbt.Current_Directory>
/home/fstefaniak/projects/zuza/docking/adenine/4TZX

>  <Rbt.Executable>
rbdock ($Id: //depot/dev/client3/rdock/2013.1/src/exe/rbdock.cxx#4 $)

>  <Rbt.Library>
libRbt.so (2013.1, Build901 2013/11/27)

>  <Rbt.Parameter_File>
/home/fstefaniak/progs/rDock//data/scripts/dock_solv.prm

>  <Rbt.Receptor>
4tzx.prm

>  <SCORE>
-51.5858

>  <SCORE.INTER>
-31.1385

>  <SCORE.INTER.CONST>
1

>  <SCORE.INTER.POLAR>
-4.77878

>  <SCORE.INTER.ROT>
3

>  <SCORE.INTER.SOLV>
12.519

>  <SCORE.INTER.VDW>
-14.6028

>  <SCORE.INTER.norm>
-3.45984

>  <SCORE.INTRA>
0.466875

>  <SCORE.INTRA.DIHEDRAL>
1.64584

>  <SCORE.INTRA.DIHEDRAL.0>
1.59869

>  <SCORE.INTRA.POLAR>
0

>  <SCORE.INTRA.POLAR.0>
0

>  <SCORE.INTRA.REPUL>
0

>  <SCORE.INTRA.REPUL.0>
0

>  <SCORE.INTRA.SOLV>
0.474038

>  <SCORE.INTRA.SOLV.lig_0>
-18.6713

>  <SCORE.INTRA.VDW>
-0.593063

>  <SCORE.INTRA.VDW.0>
0.262432

>  <SCORE.INTRA.norm>
0.051875

>  <SCORE.RESTR>
0

>  <SCORE.RESTR.CAVITY>
0

>  <SCORE.RESTR.norm>
0

>  <SCORE.SYSTEM>
-20.9141

>  <SCORE.SYSTEM.CONST>
0

>  <SCORE.SYSTEM.DIHEDRAL>
4.67233

>  <SCORE.SYSTEM.POLAR>
-3.09988

>  <SCORE.SYSTEM.SOLV>
0.0177434

>  <SCORE.SYSTEM.VDW>
-5.17318

>  <SCORE.SYSTEM.norm>
-2.32379

>  <SCORE.heavy>
9

>  <SCORE.norm>
-5.73175

$$$$
P25485764
 OpenBabel12072022113D
libRbt.so/2013.1/901 2013/11/27
 16 16  0  0  0  0  0  0  0  0999 V2000
  -29.6636   17.4439  -17.6752 C   0  0  0  0  0  0  0  0  0  0  0  0
  -29.1738   16.5890  -16.4876 C   0  0  1  0  0  0  0  0  0  0  0  0
  -30.2154   16.7929  -15.3754 C   0  0  2  0  0  0  0  0  0  0  0  0
  -30.6646   18.2285  -15.6142 C   0  0  1  0  0  0  0  0  0  0  0  0
  -30.8563   18.2222  -17.1264 C   0  0  1  0  0  0  0  0  0  0  0  0
  -30.9387   19.6071  -17.6386 N   0  3  0  0  0  0  0  0  0  0  0  0
  -31.8123   20.0280  -17.2815 H   0  0  0  0  0  0  0  0  0  0  0  0
  -30.1693   20.2050  -17.3111 H   0  0  0  0  0  0  0  0  0  0  0  0
  -30.9743   19.6487  -18.6641 H   0  0  0  0  0  0  0  0  0  0  0  0
  -31.8785   18.5715  -14.9693 O   0  0  0  0  0  0  0  0  0  0  0  0
  -29.6482   16.6729  -14.0856 O   0  0  0  0  0  0  0  0  0  0  0  0
  -28.9617   15.1155  -16.8125 C   0  0  0  0  0  0  0  0  0  0  0  0
  -28.2128   14.5363  -15.7530 O   0  0  0  0  0  0  0  0  0  0  0  0
  -32.5407   17.9101  -15.2673 H   0  0  0  0  0  0  0  0  0  0  0  0
  -28.9930   17.4016  -14.0038 H   0  0  0  0  0  0  0  0  0  0  0  0
  -28.8258   14.3880  -15.0072 H   0  0  0  0  0  0  0  0  0  0  0  0
  1  2  1  0  0  0  0
  1  5  1  0  0  0  0
  2 12  1  6  0  0  0
  2  3  1  0  0  0  0
  3 11  1  1  0  0  0
  3  4  1  0  0  0  0
  4 10  1  1  0  0  0
  4  5  1  0  0  0  0
  5  6  1  6  0  0  0
  6  7  1  0  0  0  0
  6  8  1  0  0  0  0
  6  9  1  0  0  0  0
 10 14  1  0  0  0  0
 11 15  1  0  0  0  0
 12 13  1  0  0  0  0
 13 16  1  0  0  0  0
M  CHG  1   6   1
M  END
>  <CHROM.0>
-58.41767545,-56.53835687,-72.20472610,-43.54861969,-179.07156653,-62.87713624
-170.30769067,-179.95568532,-168.68817310

>  <CHROM.1>
165.82438880,63.36691149,-55.10396976,175.24020244,77.51914799,-30.03300247
17.19099072,-16.10916392,-2.66462016,-0.92208852,1.94043465

>  <Name>
P25485764

>  <RI>
0

>  <Rbt.Current_Directory>
/home/fstefaniak/projects/zuza/docking/adenine/4TZX

>  <Rbt.Executable>
rbdock ($Id: //depot/dev/client3/rdock/2013.1/src/exe/rbdock.cxx#4 $)

>  <Rbt.Library>
libRbt.so (2013.1, Build901 2013/11/27)

>  <Rbt.Parameter_File>
/home/fstefaniak/progs/rDock//data/scripts/dock_solv.prm

>  <Rbt.Receptor>
4tzx.prm

>  <SCORE>
-55.3833

>  <SCORE.INTER>
-37.7591

>  <SCORE.INTER.CONST>
1

>  <SCORE.INTER.POLAR>
-5.52924

>  <SCORE.INTER.ROT>
1

>  <SCORE.INTER.SOLV>
23.1746

>  <SCORE.INTER.VDW>
-18.7335

>  <SCORE.INTER.norm>
-3.77591

>  <SCORE.INTRA>
2.93244

>  <SCORE.INTRA.DIHEDRAL>
1.35916

>  <SCORE.INTRA.DIHEDRAL.0>
1.32533

>  <SCORE.INTRA.POLAR>
0.643856

>  <SCORE.INTRA.POLAR.0>
-0.643856

>  <SCORE.INTRA.REPUL>
0

>  <SCORE.INTRA.REPUL.0>
0

>  <SCORE.INTRA.SOLV>
-0.166036

>  <SCORE.INTRA.SOLV.lig_0>
-36.5831

>  <SCORE.INTRA.VDW>
0.146762

>  <SCORE.INTRA.VDW.0>
-0.507159

>  <SCORE.INTRA.norm>
0.293244

>  <SCORE.RESTR>
0

>  <SCORE.RESTR.CAVITY>
0

>  <SCORE.RESTR.norm>
0

>  <SCORE.SYSTEM>
-20.5566

>  <SCORE.SYSTEM.CONST>
0

>  <SCORE.SYSTEM.DIHEDRAL>
5.09512

>  <SCORE.SYSTEM.POLAR>
-3.03143

>  <SCORE.SYSTEM.SOLV>
-0.158016

>  <SCORE.SYSTEM.VDW>
-5.24534

>  <SCORE.SYSTEM.norm>
-2.05566

>  <SCORE.heavy>
10

>  <SCORE.norm>
-5.53833

$$$$
P25485764
 OpenBabel12072022113D
libRbt.so/2013.1/901 2013/11/27
 16 16  0  0  0  0  0  0  0  0999 V2000
  -29.4049   17.5281  -17.4119 C   0  0  0  0  0  0  0  0  0  0  0  0
  -29.4201   16.6827  -16.1211 C   0  0  1  0  0  0  0  0  0  0  0  0
  -30.8442   16.8162  -15.5575 C   0  0  2  0  0  0  0  0  0  0  0  0
  -31.2254   18.2299  -15.9771 C   0  0  1  0  0  0  0  0  0  0  0  0
  -30.7573   18.2355  -17.4277 C   0  0  1  0  0  0  0  0  0  0  0  0
  -30.6881   19.6216  -17.9388 N   0  3  0  0  0  0  0  0  0  0  0  0
  -31.6389   20.0244  -17.8985 H   0  0  0  0  0  0  0  0  0  0  0  0
  -30.0864   20.2316  -17.3709 H   0  0  0  0  0  0  0  0  0  0  0  0
  -30.3756   19.6683  -18.9160 H   0  0  0  0  0  0  0  0  0  0  0  0
  -32.6145   18.5001  -15.9110 O   0  0  0  0  0  0  0  0  0  0  0  0
  -30.8719   16.7072  -14.1479 O   0  0  0  0  0  0  0  0  0  0  0  0
  -29.0124   15.2271  -16.3123 C   0  0  0  0  0  0  0  0  0  0  0  0
  -27.6094   15.1904  -16.5345 O   0  0  0  0  0  0  0  0  0  0  0  0
  -33.0661   17.6606  -16.1476 H   0  0  0  0  0  0  0  0  0  0  0  0
  -31.8072   16.8482  -13.8789 H   0  0  0  0  0  0  0  0  0  0  0  0
  -27.4381   15.6116  -17.3989 H   0  0  0  0  0  0  0  0  0  0  0  0
  1  2  1  0  0  0  0
  1  5  1  0  0  0  0
  2 12  1  6  0  0  0
  2  3  1  0  0  0  0
  3 11  1  1  0  0  0
  3  4  1  0  0  0  0
  4 10  1  6  0  0  0
  4  5  1  0  0  0  0
  5  6  1  1  0  0  0
  6  7  1  0  0  0  0
  6  8  1  0  0  0  0
  6  9  1  0  0  0  0
 10 14  1  0  0  0  0
 11 15  1  0  0  0  0
 12 13  1  0  0  0  0
 13 16  1  0  0  0  0
M  CHG  1   6   1
M  END
>  <CHROM.0>
-50.19250544,-64.70697365,-73.54449968,-43.85817376,-56.90800708,-66.12674656
-169.23884628,-58.66922384,-170.19804863

>  <CHROM.1>
72.87513187,177.28030134,-34.18720697,-179.05741812,-67.53652986,-30.26098110
17.29223388,-16.32794545,-0.57591474,0.60722722,-0.83770714

>  <Name>
P25485764

>  <RI>
0

>  <Rbt.Current_Directory>
/home/fstefaniak/projects/zuza/docking/adenine/4TZX

>  <Rbt.Executable>
rbdock ($Id: //depot/dev/client3/rdock/2013.1/src/exe/rbdock.cxx#4 $)

>  <Rbt.Library>
libRbt.so (2013.1, Build901 2013/11/27)

>  <Rbt.Parameter_File>
/home/fstefaniak/progs/rDock//data/scripts/dock_solv.prm

>  <Rbt.Receptor>
4tzx.prm

>  <SCORE>
-54.2327

>  <SCORE.INTER>
-37.3147

>  <SCORE.INTER.CONST>
1

>  <SCORE.INTER.POLAR>
-5.87606

>  <SCORE.INTER.ROT>
1

>  <SCORE.INTER.SOLV>
24.048

>  <SCORE.INTER.VDW>
-17.5723

>  <SCORE.INTER.norm>
-3.73147

>  <SCORE.INTRA>
3.29713

>  <SCORE.INTRA.DIHEDRAL>
2.59489

>  <SCORE.INTRA.DIHEDRAL.0>
1.32533

>  <SCORE.INTRA.POLAR>
0.643856

>  <SCORE.INTRA.POLAR.0>
-0.643856

>  <SCORE.INTRA.REPUL>
0

>  <SCORE.INTRA.REPUL.0>
0

>  <SCORE.INTRA.SOLV>
-0.851123

>  <SCORE.INTRA.SOLV.lig_0>
-36.5831

>  <SCORE.INTRA.VDW>
0.236137

>  <SCORE.INTRA.VDW.0>
-0.507159

>  <SCORE.INTRA.norm>
0.329713

>  <SCORE.RESTR>
0

>  <SCORE.RESTR.CAVITY>
0

>  <SCORE.RESTR.norm>
0

>  <SCORE.SYSTEM>
-20.2151

>  <SCORE.SYSTEM.CONST>
0

>  <SCORE.SYSTEM.DIHEDRAL>
5.80422

>  <SCORE.SYSTEM.POLAR>
-3.05573

>  <SCORE.SYSTEM.SOLV>
0.16061

>  <SCORE.SYSTEM.VDW>
-5.27926

>  <SCORE.SYSTEM.norm>
-2.02151

>  <SCORE.heavy>
10

>  <SCORE.norm>
-5.42327

$$$$
P25485764
 OpenBabel12072022113D
libRbt.so/2013.1/901 2013/11/27
 16 16  0  0  0  0  0  0  0  0999 V2000
  -29.6837   17.3844  -17.5168 C   0  0  0  0  0  0  0  0  0  0  0  0
  -29.1741   16.5814  -16.3016 C   0  0  1  0  0  0  0  0  0  0  0  0
  -30.1942   16.8380  -15.1805 C   0  0  2  0  0  0  0  0  0  0  0  0
  -30.6441   18.2632  -15.4745 C   0  0  1  0  0  0  0  0  0  0  0  0
  -30.8640   18.1904  -16.9811 C   0  0  1  0  0  0  0  0  0  0  0  0
  -30.9523   19.5515  -17.5527 N   0  3  0  0  0  0  0  0  0  0  0  0
  -30.8929   19.4702  -18.5812 H   0  0  0  0  0  0  0  0  0  0  0  0
  -31.8443   20.0189  -17.3462 H   0  0  0  0  0  0  0  0  0  0  0  0
  -30.1833   20.1600  -17.2475 H   0  0  0  0  0  0  0  0  0  0  0  0
  -31.8449   18.6386  -14.8232 O   0  0  0  0  0  0  0  0  0  0  0  0
  -29.6035   16.7735  -13.8974 O   0  0  0  0  0  0  0  0  0  0  0  0
  -28.9719   15.0943  -16.5647 C   0  0  0  0  0  0  0  0  0  0  0  0
  -27.5915   14.8786  -16.8238 O   0  0  0  0  0  0  0  0  0  0  0  0
  -31.6469   18.6283  -13.8613 H   0  0  0  0  0  0  0  0  0  0  0  0
  -28.9020   17.4625  -13.8819 H   0  0  0  0  0  0  0  0  0  0  0  0
  -27.3722   15.3451  -17.6534 H   0  0  0  0  0  0  0  0  0  0  0  0
  1  2  1  0  0  0  0
  1  5  1  0  0  0  0
  2 12  1  6  0  0  0
  2  3  1  0  0  0  0
  3 11  1  1  0  0  0
  3  4  1  0  0  0  0
  4 10  1  1  0  0  0
  4  5  1  0  0  0  0
  5  6  1  6  0  0  0
  6  7  1  0  0  0  0
  6  8  1  0  0  0  0
  6  9  1  0  0  0  0
 10 14  1  0  0  0  0
 11 15  1  0  0  0  0
 12 13  1  0  0  0  0
 13 16  1  0  0  0  0
M  CHG  1   6   1
M  END
>  <CHROM.0>
-60.59965465,-59.96848485,-70.25017193,-42.64176905,-63.84646867,-66.56560021
-167.53572198,58.52840511,-169.20354463

>  <CHROM.1>
98.50556023,59.55380221,64.91852564,50.29754970,-65.07015272,-29.94181394
17.24694424,-16.09067432,-0.17000285,0.87964236,-1.25270648

>  <Name>
P25485764

>  <RI>
0

>  <Rbt.Current_Directory>
/home/fstefaniak/projects/zuza/docking/adenine/4TZX

>  <Rbt.Executable>
rbdock ($Id: //depot/dev/client3/rdock/2013.1/src/exe/rbdock.cxx#4 $)

>  <Rbt.Library>
libRbt.so (2013.1, Build901 2013/11/27)

>  <Rbt.Parameter_File>
/home/fstefaniak/progs/rDock//data/scripts/dock_solv.prm

>  <Rbt.Receptor>
4tzx.prm

>  <SCORE>
-53.7933

>  <SCORE.INTER>
-37.7057

>  <SCORE.INTER.CONST>
1

>  <SCORE.INTER.POLAR>
-5.56574

>  <SCORE.INTER.ROT>
1

>  <SCORE.INTER.SOLV>
22.9036

>  <SCORE.INTER.VDW>
-18.4859

>  <SCORE.INTER.norm>
-3.77057

>  <SCORE.INTRA>
3.46485

>  <SCORE.INTRA.DIHEDRAL>
3.27808

>  <SCORE.INTRA.DIHEDRAL.0>
1.32533

>  <SCORE.INTRA.POLAR>
0.643856

>  <SCORE.INTRA.POLAR.0>
-0.643856

>  <SCORE.INTRA.REPUL>
0

>  <SCORE.INTRA.REPUL.0>
0

>  <SCORE.INTRA.SOLV>
-0.924602

>  <SCORE.INTRA.SOLV.lig_0>
-36.5831

>  <SCORE.INTRA.VDW>
0.0989999

>  <SCORE.INTRA.VDW.0>
-0.507159

>  <SCORE.INTRA.norm>
0.346485

>  <SCORE.RESTR>
0

>  <SCORE.RESTR.CAVITY>
0

>  <SCORE.RESTR.norm>
0

>  <SCORE.SYSTEM>
-19.5524

>  <SCORE.SYSTEM.CONST>
0

>  <SCORE.SYSTEM.DIHEDRAL>
5.41299

>  <SCORE.SYSTEM.POLAR>
-3.03587

>  <SCORE.SYSTEM.SOLV>
-0.0264793

>  <SCORE.SYSTEM.VDW>
-4.71086

>  <SCORE.SYSTEM.norm>
-1.95524

>  <SCORE.heavy>
10

>  <SCORE.norm>
-5.37933

$$$$
P28316096
 OpenBabel12072022113D
libRbt.so/2013.1/901 2013/11/27
 12 12  0  0  0  0  0  0  0  0999 V2000
  -25.6397   15.3831  -16.1113 C   0  0  0  0  0  0  0  0  0  0  0  0
  -26.8855   16.2668  -16.1724 C   0  0  0  0  0  0  0  0  0  0  0  0
  -28.1466   15.4471  -15.9299 C   0  0  2  0  0  0  0  0  0  0  0  0
  -28.1358   14.2498  -16.8939 N   0  3  0  0  0  0  0  0  0  0  0  0
  -28.2678   14.6307  -17.8458 H   0  0  0  0  0  0  0  0  0  0  0  0
  -29.0704   13.8216  -16.7059 H   0  0  0  0  0  0  0  0  0  0  0  0
  -27.0115   13.4189  -16.6863 N   0  0  0  0  0  0  0  0  0  0  0  0
  -25.7835   14.1604  -17.0162 C   0  0  0  0  0  0  0  0  0  0  0  0
  -29.4842   16.2122  -16.1364 C   0  0  0  0  0  0  0  0  0  0  0  0
  -29.4502   16.8607  -17.2325 O   0  0  0  0  0  0  0  0  0  0  0  0
  -30.3278   16.1683  -15.2153 O   0  5  0  0  0  0  0  0  0  0  0  0
  -27.0446   12.5658  -17.2576 H   0  0  0  0  0  0  0  0  0  0  0  0
  1  2  1  0  0  0  0
  1  8  1  0  0  0  0
  2  3  1  0  0  0  0
  3  4  1  0  0  0  0
  3  9  1  6  0  0  0
  4  5  1  0  0  0  0
  4  6  1  0  0  0  0
  4  7  1  0  0  0  0
  7  8  1  0  0  0  0
  7 12  1  0  0  0  0
  9 10  2  0  0  0  0
  9 11  1  0  0  0  0
M  CHG  2   4   1  11  -1
M  END
>  <CHROM.0>
-61.47538214,174.88787561,-64.89729611,-43.28556809,-176.96299818,-57.23667283
-64.52330023,61.16202320,-169.04706305

>  <CHROM.1>
47.11155286,-27.91389948,15.33455512,-16.40030449,-0.52664917,0.04704651
0.20032239

>  <Name>
P28316096

>  <RI>
0

>  <Rbt.Current_Directory>
/home/fstefaniak/projects/zuza/docking/adenine/4TZX

>  <Rbt.Executable>
rbdock ($Id: //depot/dev/client3/rdock/2013.1/src/exe/rbdock.cxx#4 $)

>  <Rbt.Library>
libRbt.so (2013.1, Build901 2013/11/27)

>  <Rbt.Parameter_File>
/home/fstefaniak/progs/rDock//data/scripts/dock_solv.prm

>  <Rbt.Receptor>
4tzx.prm

>  <SCORE>
-42.7975

>  <SCORE.INTER>
-22.0982

>  <SCORE.INTER.CONST>
1

>  <SCORE.INTER.POLAR>
-3.85241

>  <SCORE.INTER.ROT>
1

>  <SCORE.INTER.SOLV>
20.1937

>  <SCORE.INTER.VDW>
-12.8887

>  <SCORE.INTER.norm>
-2.45536

>  <SCORE.INTRA>
-0.67899

>  <SCORE.INTRA.DIHEDRAL>
-0.0355707

>  <SCORE.INTRA.DIHEDRAL.0>
1.10641

>  <SCORE.INTRA.POLAR>
0

>  <SCORE.INTRA.POLAR.0>
0

>  <SCORE.INTRA.REPUL>
0

>  <SCORE.INTRA.REPUL.0>
0

>  <SCORE.INTRA.SOLV>
-0.512401

>  <SCORE.INTRA.SOLV.lig_0>
-45.9557

>  <SCORE.INTRA.VDW>
-0.405004

>  <SCORE.INTRA.VDW.0>
0.317883

>  <SCORE.INTRA.norm>
-0.0754433

>  <SCORE.RESTR>
0

>  <SCORE.RESTR.CAVITY>
0

>  <SCORE.RESTR.norm>
0

>  <SCORE.SYSTEM>
-20.0203

>  <SCORE.SYSTEM.CONST>
0

>  <SCORE.SYSTEM.DIHEDRAL>
4.32992

>  <SCORE.SYSTEM.POLAR>
-3.0476

>  <SCORE.SYSTEM.SOLV>
-0.17672

>  <SCORE.SYSTEM.VDW>
-4.57261

>  <SCORE.SYSTEM.norm>
-2.22448

>  <SCORE.heavy>
9

>  <SCORE.norm>
-4.75528

$$$$
P28316096
 OpenBabel12072022113D
libRbt.so/2013.1/901 2013/11/27
 12 12  0  0  0  0  0  0  0  0999 V2000
  -31.2343   19.3776  -17.6846 C   0  0  0  0  0  0  0  0  0  0  0  0
  -30.9440   18.6347  -16.3806 C   0  0  0  0  0  0  0  0  0  0  0  0
  -29.5896   17.9397  -16.4401 C   0  0  2  0  0  0  0  0  0  0  0  0
  -29.5435   17.0826  -17.7154 N   0  3  0  0  0  0  0  0  0  0  0  0
  -30.2134   16.3071  -17.5792 H   0  0  0  0  0  0  0  0  0  0  0  0
  -28.6272   16.5923  -17.6047 H   0  0  0  0  0  0  0  0  0  0  0  0
  -29.6992   17.8667  -18.8809 N   0  0  0  0  0  0  0  0  0  0  0  0
  -31.0437   18.4656  -18.8955 C   0  0  0  0  0  0  0  0  0  0  0  0
  -29.2657   17.0148  -15.2332 C   0  0  0  0  0  0  0  0  0  0  0  0
  -28.0542   17.1763  -14.8735 O   0  0  0  0  0  0  0  0  0  0  0  0
  -30.1518   16.2179  -14.8566 O   0  5  0  0  0  0  0  0  0  0  0  0
  -29.5732   17.3189  -19.7407 H   0  0  0  0  0  0  0  0  0  0  0  0
  1  2  1  0  0  0  0
  1  8  1  0  0  0  0
  2  3  1  0  0  0  0
  3  4  1  0  0  0  0
  3  9  1  1  0  0  0
  4  5  1  0  0  0  0
  4  6  1  0  0  0  0
  4  7  1  0  0  0  0
  7  8  1  0  0  0  0
  7 12  1  0  0  0  0
  9 10  2  0  0  0  0
  9 11  1  0  0  0  0
M  CHG  2   4   1  11  -1
M  END
>  <CHROM.0>
-62.10422565,-61.40160273,-64.77876325,-43.42128069,-57.21639576,-63.18099697
-64.25125134,-60.02973135,-168.66369590

>  <CHROM.1>
-137.90922430,-29.92410637,17.70739097,-16.77716709,2.08545662,0.66370730
-1.45302120

>  <Name>
P28316096

>  <RI>
0

>  <Rbt.Current_Directory>
/home/fstefaniak/projects/zuza/docking/adenine/4TZX

>  <Rbt.Executable>
rbdock ($Id: //depot/dev/client3/rdock/2013.1/src/exe/rbdock.cxx#4 $)

>  <Rbt.Library>
libRbt.so (2013.1, Build901 2013/11/27)

>  <Rbt.Parameter_File>
/home/fstefaniak/progs/rDock//data/scripts/dock_solv.prm

>  <Rbt.Receptor>
4tzx.prm

>  <SCORE>
-42.7924

>  <SCORE.INTER>
-20.6154

>  <SCORE.INTER.CONST>
1

>  <SCORE.INTER.POLAR>
-2.90868

>  <SCORE.INTER.ROT>
1

>  <SCORE.INTER.SOLV>
23.6501

>  <SCORE.INTER.VDW>
-16.198

>  <SCORE.INTER.norm>
-2.2906

>  <SCORE.INTRA>
-1.00969

>  <SCORE.INTRA.DIHEDRAL>
-0.11157

>  <SCORE.INTRA.DIHEDRAL.0>
1.10641

>  <SCORE.INTRA.POLAR>
0

>  <SCORE.INTRA.POLAR.0>
0

>  <SCORE.INTRA.REPUL>
0

>  <SCORE.INTRA.REPUL.0>
0

>  <SCORE.INTRA.SOLV>
-0.539157

>  <SCORE.INTRA.SOLV.lig_0>
-45.9557

>  <SCORE.INTRA.VDW>
-0.684325

>  <SCORE.INTRA.VDW.0>
0.317883

>  <SCORE.INTRA.norm>
-0.112188

>  <SCORE.RESTR>
0

>  <SCORE.RESTR.CAVITY>
0

>  <SCORE.RESTR.norm>
0

>  <SCORE.SYSTEM>
-21.1674

>  <SCORE.SYSTEM.CONST>
0

>  <SCORE.SYSTEM.DIHEDRAL>
4.22416

>  <SCORE.SYSTEM.POLAR>
-3.04082

>  <SCORE.SYSTEM.SOLV>
0.187061

>  <SCORE.SYSTEM.VDW>
-5.44592

>  <SCORE.SYSTEM.norm>
-2.35193

>  <SCORE.heavy>
9

>  <SCORE.norm>
-4.75471

$$$$
P28316096
 OpenBabel12072022113D
libRbt.so/2013.1/901 2013/11/27
 12 12  0  0  0  0  0  0  0  0999 V2000
  -31.3012   19.3377  -17.6651 C   0  0  0  0  0  0  0  0  0  0  0  0
  -30.9930   18.5932  -16.3661 C   0  0  0  0  0  0  0  0  0  0  0  0
  -29.6149   17.9461  -16.4236 C   0  0  2  0  0  0  0  0  0  0  0  0
  -29.5318   17.1029  -17.7062 N   0  3  0  0  0  0  0  0  0  0  0  0
  -30.1752   16.3035  -17.5811 H   0  0  0  0  0  0  0  0  0  0  0  0
  -28.5997   16.6436  -17.5943 H   0  0  0  0  0  0  0  0  0  0  0  0
  -29.7077   17.8918  -18.8655 N   0  0  0  0  0  0  0  0  0  0  0  0
  -31.0721   18.4440  -18.8830 C   0  0  0  0  0  0  0  0  0  0  0  0
  -29.2662   17.0219  -15.2230 C   0  0  0  0  0  0  0  0  0  0  0  0
  -28.0496   17.1890  -14.8838 O   0  0  0  0  0  0  0  0  0  0  0  0
  -30.1419   16.2204  -14.8322 O   0  5  0  0  0  0  0  0  0  0  0  0
  -29.5579   17.3567  -19.7294 H   0  0  0  0  0  0  0  0  0  0  0  0
  1  2  1  0  0  0  0
  1  8  1  0  0  0  0
  2  3  1  0  0  0  0
  3  4  1  0  0  0  0
  3  9  1  1  0  0  0
  4  5  1  0  0  0  0
  4  6  1  0  0  0  0
  4  7  1  0  0  0  0
  7  8  1  0  0  0  0
  7 12  1  0  0  0  0
  9 10  2  0  0  0  0
  9 11  1  0  0  0  0
M  CHG  2   4   1  11  -1
M  END
>  <CHROM.0>
-59.65731803,-62.77178718,-65.65680188,-43.77387847,-58.74654956,-63.09171031
-68.77492827,-61.81162985,-168.78796547

>  <CHROM.1>
-140.11494949,-29.93948031,17.70499355,-16.76500938,2.07763565,0.61504804
-1.43152267

>  <Name>
P28316096

>  <RI>
0

>  <Rbt.Current_Directory>
/home/fstefaniak/projects/zuza/docking/adenine/4TZX

>  <Rbt.Executable>
rbdock ($Id: //depot/dev/client3/rdock/2013.1/src/exe/rbdock.cxx#4 $)

>  <Rbt.Library>
libRbt.so (2013.1, Build901 2013/11/27)

>  <Rbt.Parameter_File>
/home/fstefaniak/progs/rDock//data/scripts/dock_solv.prm

>  <Rbt.Receptor>
4tzx.prm

>  <SCORE>
-42.7874

>  <SCORE.INTER>
-20.5889

>  <SCORE.INTER.CONST>
1

>  <SCORE.INTER.POLAR>
-2.89781

>  <SCORE.INTER.ROT>
1

>  <SCORE.INTER.SOLV>
23.6187

>  <SCORE.INTER.VDW>
-16.2061

>  <SCORE.INTER.norm>
-2.28765

>  <SCORE.INTRA>
-0.990226

>  <SCORE.INTRA.DIHEDRAL>
-0.116933

>  <SCORE.INTRA.DIHEDRAL.0>
1.10641

>  <SCORE.INTRA.POLAR>
0

>  <SCORE.INTRA.POLAR.0>
0

>  <SCORE.INTRA.REPUL>
0

>  <SCORE.INTRA.REPUL.0>
0

>  <SCORE.INTRA.SOLV>
-0.535692

>  <SCORE.INTRA.SOLV.lig_0>
-45.9557

>  <SCORE.INTRA.VDW>
-0.663913

>  <SCORE.INTRA.VDW.0>
0.317883

>  <SCORE.INTRA.norm>
-0.110025

>  <SCORE.RESTR>
0

>  <SCORE.RESTR.CAVITY>
0

>  <SCORE.RESTR.norm>
0

>  <SCORE.SYSTEM>
-21.2083

>  <SCORE.SYSTEM.CONST>
0

>  <SCORE.SYSTEM.DIHEDRAL>
4.45973

>  <SCORE.SYSTEM.POLAR>
-3.03778

>  <SCORE.SYSTEM.SOLV>
0.172347

>  <SCORE.SYSTEM.VDW>
-5.55697

>  <SCORE.SYSTEM.norm>
-2.35648

>  <SCORE.heavy>
9

>  <SCORE.norm>
-4.75416

$$$$
P28811580
 OpenBabel12072022113D
libRbt.so/2013.1/901 2013/11/27
 12 12  0  0  0  0  0  0  0  0999 V2000
  -25.7950   15.6157  -16.7700 C   0  0  0  0  0  0  0  0  0  0  0  0
  -26.8159   16.1095  -16.3733 C   0  0  0  0  0  0  0  0  0  0  0  0
  -28.0713   16.7201  -15.9060 C   0  0  0  0  0  0  0  0  0  0  0  0
  -29.2562   16.0566  -16.4698 N   0  0  0  0  0  0  0  0  0  0  0  0
  -30.3584   15.9823  -15.4963 C   0  0  0  0  0  0  0  0  0  0  0  0
  -31.0292   17.3199  -15.2006 C   0  0  0  0  0  0  0  0  0  0  0  0
  -31.4131   18.0014  -16.4946 C   0  0  0  0  0  0  0  0  0  0  0  0
  -32.5792   18.5732  -16.5578 N   0  0  0  0  0  0  0  0  0  0  0  0
  -32.7765   19.2200  -17.7804 O   0  0  0  0  0  0  0  0  0  0  0  0
  -30.3564   18.0419  -17.5778 C   0  0  0  0  0  0  0  0  0  0  0  0
  -29.7366   16.6551  -17.7271 C   0  0  0  0  0  0  0  0  0  0  0  0
  -32.3421   20.0813  -17.6351 H   0  0  0  0  0  0  0  0  0  0  0  0
  1  2  3  0  0  0  0
  2  3  1  0  0  0  0
  3  4  1  0  0  0  0
  4  5  1  0  0  0  0
  4 11  1  0  0  0  0
  5  6  1  0  0  0  0
  6  7  1  0  0  0  0
  7  8  2  0  0  0  0
  7 10  1  0  0  0  0
  8  9  1  0  0  0  0
  9 12  1  0  0  0  0
 10 11  1  0  0  0  0
M  END
>  <CHROM.0>
-59.87706874,-60.28146599,-66.15082423,-43.30307118,-178.19708463,-66.12633567
-66.98877043,-60.06296834,-169.09955900

>  <CHROM.1>
63.39386708,143.02739771,-83.74402121,-29.93555264,17.17620692,-16.60275320
-0.31830362,0.36622195,-1.03523967

>  <Name>
P28811580

>  <RI>
0

>  <Rbt.Current_Directory>
/home/fstefaniak/projects/zuza/docking/adenine/4TZX

>  <Rbt.Executable>
rbdock ($Id: //depot/dev/client3/rdock/2013.1/src/exe/rbdock.cxx#4 $)

>  <Rbt.Library>
libRbt.so (2013.1, Build901 2013/11/27)

>  <Rbt.Parameter_File>
/home/fstefaniak/progs/rDock//data/scripts/dock_solv.prm

>  <Rbt.Receptor>
4tzx.prm

>  <SCORE>
-38.4378

>  <SCORE.INTER>
-16.4982

>  <SCORE.INTER.CONST>
1

>  <SCORE.INTER.POLAR>
-1.85991

>  <SCORE.INTER.ROT>
2

>  <SCORE.INTER.SOLV>
10.4746

>  <SCORE.INTER.VDW>
-13.224

>  <SCORE.INTER.norm>
-1.49984

>  <SCORE.INTRA>
-0.558153

>  <SCORE.INTRA.DIHEDRAL>
-0.592988

>  <SCORE.INTRA.DIHEDRAL.0>
2.07738

>  <SCORE.INTRA.POLAR>
0

>  <SCORE.INTRA.POLAR.0>
0

>  <SCORE.INTRA.REPUL>
0

>  <SCORE.INTRA.REPUL.0>
0

>  <SCORE.INTRA.SOLV>
-0.0435244

>  <SCORE.INTRA.SOLV.lig_0>
-7.79112

>  <SCORE.INTRA.VDW>
-0.239897

>  <SCORE.INTRA.VDW.0>
-0.338893

>  <SCORE.INTRA.norm>
-0.0507412

>  <SCORE.RESTR>
0

>  <SCORE.RESTR.CAVITY>
0

>  <SCORE.RESTR.norm>
0

>  <SCORE.SYSTEM>
-21.3814

>  <SCORE.SYSTEM.CONST>
0

>  <SCORE.SYSTEM.DIHEDRAL>
4.4793

>  <SCORE.SYSTEM.POLAR>
-3.04321

>  <SCORE.SYSTEM.SOLV>
-0.0100848

>  <SCORE.SYSTEM.VDW>
-5.59998

>  <SCORE.SYSTEM.norm>
-1.94377

>  <SCORE.heavy>
11

>  <SCORE.norm>
-3.49434

$$$$
P28811580
 OpenBabel12072022113D
libRbt.so/2013.1/901 2013/11/27
 12 12  0  0  0  0  0  0  0  0999 V2000
  -25.7555   15.6109  -16.7622 C   0  0  0  0  0  0  0  0  0  0  0  0
  -26.7909   16.0916  -16.3877 C   0  0  0  0  0  0  0  0  0  0  0  0
  -28.0496   16.6909  -15.9147 C   0  0  0  0  0  0  0  0  0  0  0  0
  -29.2308   16.0316  -16.4911 N   0  0  0  0  0  0  0  0  0  0  0  0
  -30.3271   15.9187  -15.5145 C   0  0  0  0  0  0  0  0  0  0  0  0
  -31.0097   17.2405  -15.1778 C   0  0  0  0  0  0  0  0  0  0  0  0
  -31.4071   17.9545  -16.4500 C   0  0  0  0  0  0  0  0  0  0  0  0
  -32.5792   18.5159  -16.4912 N   0  0  0  0  0  0  0  0  0  0  0  0
  -32.7894   19.1950  -17.6940 O   0  0  0  0  0  0  0  0  0  0  0  0
  -30.3567   18.0362  -17.5370 C   0  0  0  0  0  0  0  0  0  0  0  0
  -29.7238   16.6605  -17.7285 C   0  0  0  0  0  0  0  0  0  0  0  0
  -32.3273   20.0405  -17.5415 H   0  0  0  0  0  0  0  0  0  0  0  0
  1  2  3  0  0  0  0
  2  3  1  0  0  0  0
  3  4  1  0  0  0  0
  4  5  1  0  0  0  0
  4 11  1  0  0  0  0
  5  6  1  0  0  0  0
  6  7  1  0  0  0  0
  7  8  2  0  0  0  0
  7 10  1  0  0  0  0
  8  9  1  0  0  0  0
  9 12  1  0  0  0  0
 10 11  1  0  0  0  0
M  END
>  <CHROM.0>
-59.88586779,-58.38133954,-68.64270350,-43.15357071,-57.35137191,-64.84815659
-65.76286332,-60.28685788,-168.82814253

>  <CHROM.1>
-168.26677609,142.05907330,-81.23900768,-29.92081364,17.14432184,-16.58256896
-0.31288574,0.35958157,-1.01180499

>  <Name>
P28811580

>  <RI>
0

>  <Rbt.Current_Directory>
/home/fstefaniak/projects/zuza/docking/adenine/4TZX

>  <Rbt.Executable>
rbdock ($Id: //depot/dev/client3/rdock/2013.1/src/exe/rbdock.cxx#4 $)

>  <Rbt.Library>
libRbt.so (2013.1, Build901 2013/11/27)

>  <Rbt.Parameter_File>
/home/fstefaniak/progs/rDock//data/scripts/dock_solv.prm

>  <Rbt.Receptor>
4tzx.prm

>  <SCORE>
-38.2957

>  <SCORE.INTER>
-16.6683

>  <SCORE.INTER.CONST>
1

>  <SCORE.INTER.POLAR>
-1.91402

>  <SCORE.INTER.ROT>
2

>  <SCORE.INTER.SOLV>
10.5158

>  <SCORE.INTER.VDW>
-13.1707

>  <SCORE.INTER.norm>
-1.5153

>  <SCORE.INTRA>
-0.491853

>  <SCORE.INTRA.DIHEDRAL>
-0.511954

>  <SCORE.INTRA.DIHEDRAL.0>
2.07738

>  <SCORE.INTRA.POLAR>
0

>  <SCORE.INTRA.POLAR.0>
0

>  <SCORE.INTRA.REPUL>
0

>  <SCORE.INTRA.REPUL.0>
0

>  <SCORE.INTRA.SOLV>
-0.0474943

>  <SCORE.INTRA.SOLV.lig_0>
-7.79112

>  <SCORE.INTRA.VDW>
-0.212129

>  <SCORE.INTRA.VDW.0>
-0.338893

>  <SCORE.INTRA.norm>
-0.0447139

>  <SCORE.RESTR>
0

>  <SCORE.RESTR.CAVITY>
0

>  <SCORE.RESTR.norm>
0

>  <SCORE.SYSTEM>
-21.1356

>  <SCORE.SYSTEM.CONST>
0

>  <SCORE.SYSTEM.DIHEDRAL>
4.58668

>  <SCORE.SYSTEM.POLAR>
-3.04668

>  <SCORE.SYSTEM.SOLV>
0.179835

>  <SCORE.SYSTEM.VDW>
-5.52362

>  <SCORE.SYSTEM.norm>
-1.92141

>  <SCORE.heavy>
11

>  <SCORE.norm>
-3.48143

$$$$
P28811580
 OpenBabel12072022113D
libRbt.so/2013.1/901 2013/11/27
 12 12  0  0  0  0  0  0  0  0999 V2000
  -25.7574   15.6528  -16.7878 C   0  0  0  0  0  0  0  0  0  0  0  0
  -26.7967   16.1115  -16.3966 C   0  0  0  0  0  0  0  0  0  0  0  0
  -28.0602   16.6827  -15.9021 C   0  0  0  0  0  0  0  0  0  0  0  0
  -29.2361   16.0219  -16.4873 N   0  0  0  0  0  0  0  0  0  0  0  0
  -30.3364   15.8996  -15.5163 C   0  0  0  0  0  0  0  0  0  0  0  0
  -31.0256   17.2170  -15.1758 C   0  0  0  0  0  0  0  0  0  0  0  0
  -31.4201   17.9360  -16.4461 C   0  0  0  0  0  0  0  0  0  0  0  0
  -32.5942   18.4931  -16.4897 N   0  0  0  0  0  0  0  0  0  0  0  0
  -32.8016   19.1776  -17.6899 O   0  0  0  0  0  0  0  0  0  0  0  0
  -30.3651   18.0275  -17.5278 C   0  0  0  0  0  0  0  0  0  0  0  0
  -29.7259   16.6553  -17.7237 C   0  0  0  0  0  0  0  0  0  0  0  0
  -32.3503   20.0272  -17.5281 H   0  0  0  0  0  0  0  0  0  0  0  0
  1  2  3  0  0  0  0
  2  3  1  0  0  0  0
  3  4  1  0  0  0  0
  4  5  1  0  0  0  0
  4 11  1  0  0  0  0
  5  6  1  0  0  0  0
  6  7  1  0  0  0  0
  7  8  2  0  0  0  0
  7 10  1  0  0  0  0
  8  9  1  0  0  0  0
  9 12  1  0  0  0  0
 10 11  1  0  0  0  0
M  END
>  <CHROM.0>
-59.80458193,-60.80964864,-63.28789903,-43.31914814,-57.24794325,-66.86295897
-66.89804410,-60.03931820,-169.28081973

>  <CHROM.1>
-164.72714428,143.39478171,-81.72201749,-29.93002860,17.13713422,-16.58169036
-0.31056416,0.35211892,-1.00238620

>  <Name>
P28811580

>  <RI>
0

>  <Rbt.Current_Directory>
/home/fstefaniak/projects/zuza/docking/adenine/4TZX

>  <Rbt.Executable>
rbdock ($Id: //depot/dev/client3/rdock/2013.1/src/exe/rbdock.cxx#4 $)

>  <Rbt.Library>
libRbt.so (2013.1, Build901 2013/11/27)

>  <Rbt.Parameter_File>
/home/fstefaniak/progs/rDock//data/scripts/dock_solv.prm

>  <Rbt.Receptor>
4tzx.prm

>  <SCORE>
-38.2891

>  <SCORE.INTER>
-16.5941

>  <SCORE.INTER.CONST>
1

>  <SCORE.INTER.POLAR>
-1.92474

>  <SCORE.INTER.ROT>
2

>  <SCORE.INTER.SOLV>
10.5436

>  <SCORE.INTER.VDW>
-13.0948

>  <SCORE.INTER.norm>
-1.50856

>  <SCORE.INTRA>
-0.535739

>  <SCORE.INTRA.DIHEDRAL>
-0.597614

>  <SCORE.INTRA.DIHEDRAL.0>
2.07738

>  <SCORE.INTRA.POLAR>
0

>  <SCORE.INTRA.POLAR.0>
0

>  <SCORE.INTRA.REPUL>
0

>  <SCORE.INTRA.REPUL.0>
0

>  <SCORE.INTRA.SOLV>
-0.046898

>  <SCORE.INTRA.SOLV.lig_0>
-7.79112

>  <SCORE.INTRA.VDW>
-0.213483

>  <SCORE.INTRA.VDW.0>
-0.338893

>  <SCORE.INTRA.norm>
-0.0487035

>  <SCORE.RESTR>
0

>  <SCORE.RESTR.CAVITY>
0

>  <SCORE.RESTR.norm>
0

>  <SCORE.SYSTEM>
-21.1593

>  <SCORE.SYSTEM.CONST>
0

>  <SCORE.SYSTEM.DIHEDRAL>
4.39782

>  <SCORE.SYSTEM.POLAR>
-3.04664

>  <SCORE.SYSTEM.SOLV>
0.179429

>  <SCORE.SYSTEM.VDW>
-5.47647

>  <SCORE.SYSTEM.norm>
-1.92357

>  <SCORE.heavy>
11

>  <SCORE.norm>
-3.48083

$$$$
P29352675
 OpenBabel12072022113D
libRbt.so/2013.1/901 2013/11/27
 14 14  0  0  0  0  0  0  0  0999 V2000
  -28.0429   13.3017  -16.5279 C   0  0  0  0  0  0  0  0  0  0  0  0
  -27.6292   14.6906  -16.0459 C   0  0  1  0  0  0  0  0  0  0  0  0
  -26.1167   14.9507  -16.2123 C   0  0  0  0  0  0  0  0  0  0  0  0
  -25.3106   14.1820  -15.3273 O   0  0  0  0  0  0  0  0  0  0  0  0
  -28.4693   15.7280  -16.6424 N   0  0  0  0  0  0  0  0  0  0  0  0
  -29.4553   16.4329  -15.9880 C   0  0  0  0  0  0  0  0  0  0  0  0
  -29.7910   16.1793  -14.8340 O   0  0  0  0  0  0  0  0  0  0  0  0
  -30.0564   17.4816  -16.7850 C   0  0  0  0  0  0  0  0  0  0  0  0
  -30.9898   18.4484  -16.4621 C   0  0  0  0  0  0  0  0  0  0  0  0
  -31.2144   19.2076  -17.6353 C   0  0  0  0  0  0  0  0  0  0  0  0
  -30.4067   18.6619  -18.6044 C   0  0  0  0  0  0  0  0  0  0  0  0
  -29.6985   17.6170  -18.1033 O   0  0  0  0  0  0  0  0  0  0  0  0
  -24.3757   14.4200  -15.5149 H   0  0  0  0  0  0  0  0  0  0  0  0
  -28.2394   16.0579  -17.5742 H   0  0  0  0  0  0  0  0  0  0  0  0
  2  1  1  6  0  0  0
  2  3  1  0  0  0  0
  2  5  1  0  0  0  0
  3  4  1  0  0  0  0
  4 13  1  0  0  0  0
  5  6  1  0  0  0  0
  5 14  1  0  0  0  0
  6  7  2  0  0  0  0
  6  8  1  0  0  0  0
  8  9  2  0  0  0  0
  8 12  1  0  0  0  0
  9 10  1  0  0  0  0
 10 11  2  0  0  0  0
 11 12  1  0  0  0  0
M  END
>  <CHROM.0>
-61.03953819,-66.65565230,-63.68992300,-42.38429603,-57.31693001,-54.44904264
-73.24209394,-62.99739725,-169.12498488

>  <CHROM.1>
-69.67253944,106.19812176,179.91876059,-174.78771879,-28.82543129,16.31480022
-16.56943564,0.65268691,-0.54765315,2.17081454

>  <Name>
P29352675

>  <RI>
0

>  <Rbt.Current_Directory>
/home/fstefaniak/projects/zuza/docking/adenine/4TZX

>  <Rbt.Executable>
rbdock ($Id: //depot/dev/client3/rdock/2013.1/src/exe/rbdock.cxx#4 $)

>  <Rbt.Library>
libRbt.so (2013.1, Build901 2013/11/27)

>  <Rbt.Parameter_File>
/home/fstefaniak/progs/rDock//data/scripts/dock_solv.prm

>  <Rbt.Receptor>
4tzx.prm

>  <SCORE>
-53.8991

>  <SCORE.INTER>
-34.6817

>  <SCORE.INTER.CONST>
1

>  <SCORE.INTER.POLAR>
-3.7091

>  <SCORE.INTER.ROT>
3

>  <SCORE.INTER.SOLV>
12.0178

>  <SCORE.INTER.VDW>
-20.3634

>  <SCORE.INTER.norm>
-2.89014

>  <SCORE.INTRA>
1.71938

>  <SCORE.INTRA.DIHEDRAL>
-0.307997

>  <SCORE.INTRA.DIHEDRAL.0>
2.25017

>  <SCORE.INTRA.POLAR>
1.00312

>  <SCORE.INTRA.POLAR.0>
-1.13198

>  <SCORE.INTRA.REPUL>
0

>  <SCORE.INTRA.REPUL.0>
0

>  <SCORE.INTRA.SOLV>
-1.53508

>  <SCORE.INTRA.SOLV.lig_0>
-16.5325

>  <SCORE.INTRA.VDW>
-0.769678

>  <SCORE.INTRA.VDW.0>
-0.366351

>  <SCORE.INTRA.norm>
0.143281

>  <SCORE.RESTR>
0

>  <SCORE.RESTR.CAVITY>
0

>  <SCORE.RESTR.norm>
0

>  <SCORE.SYSTEM>
-20.9368

>  <SCORE.SYSTEM.CONST>
0

>  <SCORE.SYSTEM.DIHEDRAL>
5.29209

>  <SCORE.SYSTEM.POLAR>
-3.07895

>  <SCORE.SYSTEM.SOLV>
0.187075

>  <SCORE.SYSTEM.VDW>
-5.52108

>  <SCORE.SYSTEM.norm>
-1.74473

>  <SCORE.heavy>
12

>  <SCORE.norm>
-4.49159

$$$$
P29352675
 OpenBabel12072022113D
libRbt.so/2013.1/901 2013/11/27
 14 14  0  0  0  0  0  0  0  0999 V2000
  -27.9646   13.2050  -16.5392 C   0  0  0  0  0  0  0  0  0  0  0  0
  -27.5968   14.6032  -16.0471 C   0  0  1  0  0  0  0  0  0  0  0  0
  -26.0917   14.9099  -16.2003 C   0  0  0  0  0  0  0  0  0  0  0  0
  -25.2716   14.1809  -15.2948 O   0  0  0  0  0  0  0  0  0  0  0  0
  -28.4634   15.6179  -16.6448 N   0  0  0  0  0  0  0  0  0  0  0  0
  -29.4718   16.2930  -15.9932 C   0  0  0  0  0  0  0  0  0  0  0  0
  -29.8052   16.0272  -14.8413 O   0  0  0  0  0  0  0  0  0  0  0  0
  -30.0990   17.3262  -16.7905 C   0  0  0  0  0  0  0  0  0  0  0  0
  -29.9435   17.6699  -18.1200 C   0  0  0  0  0  0  0  0  0  0  0  0
  -30.8089   18.7630  -18.3634 C   0  0  0  0  0  0  0  0  0  0  0  0
  -31.4416   19.0227  -17.1711 C   0  0  0  0  0  0  0  0  0  0  0  0
  -31.0227   18.1594  -16.2100 O   0  0  0  0  0  0  0  0  0  0  0  0
  -24.3413   14.4319  -15.4883 H   0  0  0  0  0  0  0  0  0  0  0  0
  -28.2390   15.9564  -17.5749 H   0  0  0  0  0  0  0  0  0  0  0  0
  2  1  1  6  0  0  0
  2  3  1  0  0  0  0
  2  5  1  0  0  0  0
  3  4  1  0  0  0  0
  4 13  1  0  0  0  0
  5  6  1  0  0  0  0
  5 14  1  0  0  0  0
  6  7  2  0  0  0  0
  6  8  1  0  0  0  0
  8  9  2  0  0  0  0
  8 12  1  0  0  0  0
  9 10  1  0  0  0  0
 10 11  2  0  0  0  0
 11 12  1  0  0  0  0
M  END
>  <CHROM.0>
-59.78155607,-67.82417850,-74.32787661,-43.18120889,-178.32723973,-66.12269156
-171.29600059,-54.73139583,-167.98983031

>  <CHROM.1>
-70.84671412,106.47285900,178.73830853,6.58190422,-28.90822293,16.23596541
-16.46223055,0.59332318,-0.54026544,2.17001878

>  <Name>
P29352675

>  <RI>
0

>  <Rbt.Current_Directory>
/home/fstefaniak/projects/zuza/docking/adenine/4TZX

>  <Rbt.Executable>
rbdock ($Id: //depot/dev/client3/rdock/2013.1/src/exe/rbdock.cxx#4 $)

>  <Rbt.Library>
libRbt.so (2013.1, Build901 2013/11/27)

>  <Rbt.Parameter_File>
/home/fstefaniak/progs/rDock//data/scripts/dock_solv.prm

>  <Rbt.Receptor>
4tzx.prm

>  <SCORE>
-52.0208

>  <SCORE.INTER>
-33.8497

>  <SCORE.INTER.CONST>
1

>  <SCORE.INTER.POLAR>
-3.7053

>  <SCORE.INTER.ROT>
3

>  <SCORE.INTER.SOLV>
11.6632

>  <SCORE.INTER.VDW>
-19.7032

>  <SCORE.INTER.norm>
-2.82081

>  <SCORE.INTRA>
2.39505

>  <SCORE.INTRA.DIHEDRAL>
-0.168307

>  <SCORE.INTRA.DIHEDRAL.0>
2.25017

>  <SCORE.INTRA.POLAR>
1.13198

>  <SCORE.INTRA.POLAR.0>
-1.13198

>  <SCORE.INTRA.REPUL>
0

>  <SCORE.INTRA.REPUL.0>
0

>  <SCORE.INTRA.SOLV>
-1.71633

>  <SCORE.INTRA.SOLV.lig_0>
-16.5325

>  <SCORE.INTRA.VDW>
-0.511371

>  <SCORE.INTRA.VDW.0>
-0.366351

>  <SCORE.INTRA.norm>
0.199587

>  <SCORE.RESTR>
0

>  <SCORE.RESTR.CAVITY>
0

>  <SCORE.RESTR.norm>
0

>  <SCORE.SYSTEM>
-20.5661

>  <SCORE.SYSTEM.CONST>
0

>  <SCORE.SYSTEM.DIHEDRAL>
5.86151

>  <SCORE.SYSTEM.POLAR>
-3.01605

>  <SCORE.SYSTEM.SOLV>
-0.0417337

>  <SCORE.SYSTEM.VDW>
-5.59717

>  <SCORE.SYSTEM.norm>
-1.71384

>  <SCORE.heavy>
12

>  <SCORE.norm>
-4.33507

$$$$
P29352675
 OpenBabel12072022113D
libRbt.so/2013.1/901 2013/11/27
 14 14  0  0  0  0  0  0  0  0999 V2000
  -28.0073   13.1476  -16.5989 C   0  0  0  0  0  0  0  0  0  0  0  0
  -27.5974   14.5167  -16.0605 C   0  0  1  0  0  0  0  0  0  0  0  0
  -26.0847   14.7856  -16.2112 C   0  0  0  0  0  0  0  0  0  0  0  0
  -25.2868   14.0589  -15.2843 O   0  0  0  0  0  0  0  0  0  0  0  0
  -28.4372   15.5759  -16.6179 N   0  0  0  0  0  0  0  0  0  0  0  0
  -29.3339   16.3429  -15.9074 C   0  0  0  0  0  0  0  0  0  0  0  0
  -29.5842   16.1359  -14.7228 O   0  0  0  0  0  0  0  0  0  0  0  0
  -29.9517   17.3970  -16.6843 C   0  0  0  0  0  0  0  0  0  0  0  0
  -29.9320   17.6583  -18.0413 C   0  0  0  0  0  0  0  0  0  0  0  0
  -30.7094   18.8235  -18.2443 C   0  0  0  0  0  0  0  0  0  0  0  0
  -31.1581   19.2051  -17.0024 C   0  0  0  0  0  0  0  0  0  0  0  0
  -30.7084   18.3496  -16.0483 O   0  0  0  0  0  0  0  0  0  0  0  0
  -24.3506   14.2934  -15.4699 H   0  0  0  0  0  0  0  0  0  0  0  0
  -28.2705   15.8699  -17.5748 H   0  0  0  0  0  0  0  0  0  0  0  0
  2  1  1  6  0  0  0
  2  3  1  0  0  0  0
  2  5  1  0  0  0  0
  3  4  1  0  0  0  0
  4 13  1  0  0  0  0
  5  6  1  0  0  0  0
  5 14  1  0  0  0  0
  6  7  2  0  0  0  0
  6  8  1  0  0  0  0
  8  9  2  0  0  0  0
  8 12  1  0  0  0  0
  9 10  1  0  0  0  0
 10 11  2  0  0  0  0
 11 12  1  0  0  0  0
M  END
>  <CHROM.0>
-60.59548262,-61.31408097,-71.68363299,-43.35137936,-58.91166839,-63.34832114
-171.61011941,-175.01894130,-168.64521106

>  <CHROM.1>
-74.21584340,113.00951707,179.46964895,9.60363403,-28.80975418,16.25216334
-16.39780761,-0.40887614,0.73831652,-1.27372829

>  <Name>
P29352675

>  <RI>
0

>  <Rbt.Current_Directory>
/home/fstefaniak/projects/zuza/docking/adenine/4TZX

>  <Rbt.Executable>
rbdock ($Id: //depot/dev/client3/rdock/2013.1/src/exe/rbdock.cxx#4 $)

>  <Rbt.Library>
libRbt.so (2013.1, Build901 2013/11/27)

>  <Rbt.Parameter_File>
/home/fstefaniak/progs/rDock//data/scripts/dock_solv.prm

>  <Rbt.Receptor>
4tzx.prm

>  <SCORE>
-51.742

>  <SCORE.INTER>
-33.6588

>  <SCORE.INTER.CONST>
1

>  <SCORE.INTER.POLAR>
-3.75147

>  <SCORE.INTER.ROT>
3

>  <SCORE.INTER.SOLV>
11.5929

>  <SCORE.INTER.VDW>
-19.3987

>  <SCORE.INTER.norm>
-2.8049

>  <SCORE.INTRA>
2.51042

>  <SCORE.INTRA.DIHEDRAL>
0.196189

>  <SCORE.INTRA.DIHEDRAL.0>
2.25017

>  <SCORE.INTRA.POLAR>
1.13198

>  <SCORE.INTRA.POLAR.0>
-1.13198

>  <SCORE.INTRA.REPUL>
0

>  <SCORE.INTRA.REPUL.0>
0

>  <SCORE.INTRA.SOLV>
-1.72304

>  <SCORE.INTRA.SOLV.lig_0>
-16.5325

>  <SCORE.INTRA.VDW>
-0.574895

>  <SCORE.INTRA.VDW.0>
-0.366351

>  <SCORE.INTRA.norm>
0.209201

>  <SCORE.RESTR>
0

>  <SCORE.RESTR.CAVITY>
0

>  <SCORE.RESTR.norm>
0

>  <SCORE.SYSTEM>
-20.5936

>  <SCORE.SYSTEM.CONST>
0

>  <SCORE.SYSTEM.DIHEDRAL>
5.0375

>  <SCORE.SYSTEM.POLAR>
-3.02757

>  <SCORE.SYSTEM.SOLV>
0.0187601

>  <SCORE.SYSTEM.VDW>
-5.32256

>  <SCORE.SYSTEM.norm>
-1.71613

>  <SCORE.heavy>
12

>  <SCORE.norm>
-4.31183

$$$$
P29568059
 OpenBabel12072022113D
libRbt.so/2013.1/901 2013/11/27
 13 13  0  0  0  0  0  0  0  0999 V2000
  -29.6187   17.3275  -16.8647 C   0  0  0  0  0  0  0  0  0  0  0  0
  -28.8090   16.2161  -15.7346 S   0  0  0  0  0  0  0  0  0  0  0  0
  -27.9512   16.9941  -14.8670 O   0  0  0  0  0  0  0  0  0  0  0  0
  -29.8293   15.3480  -15.1868 O   0  0  0  0  0  0  0  0  0  0  0  0
  -27.8328   15.3302  -16.8034 N   0  0  0  0  0  0  0  0  0  0  0  0
  -26.3985   15.7042  -16.8748 C   0  0  0  0  0  0  0  0  0  0  0  0
  -25.5616   14.9310  -15.8592 C   0  0  0  0  0  0  0  0  0  0  0  0
  -25.8008   13.4274  -15.9443 C   0  0  0  0  0  0  0  0  0  0  0  0
  -27.2946   13.1122  -15.8780 C   0  0  0  0  0  0  0  0  0  0  0  0
  -28.1119   13.8960  -16.9134 C   0  0  2  0  0  0  0  0  0  0  0  0
  -27.8472   13.4489  -18.2746 N   0  0  0  0  0  0  0  0  0  0  0  0
  -27.6390   14.2624  -18.8499 H   0  0  0  0  0  0  0  0  0  0  0  0
  -28.6819   13.0302  -18.6690 H   0  0  0  0  0  0  0  0  0  0  0  0
  1  2  1  0  0  0  0
  2  3  2  0  0  0  0
  2  4  2  0  0  0  0
  2  5  1  0  0  0  0
  5  6  1  0  0  0  0
  5 10  1  0  0  0  0
  6  7  1  0  0  0  0
  7  8  1  0  0  0  0
  8  9  1  0  0  0  0
  9 10  1  0  0  0  0
 10 11  1  6  0  0  0
 11 12  1  0  0  0  0
 11 13  1  0  0  0  0
M  END
>  <CHROM.0>
-56.40208772,-158.98732559,-71.88115821,-43.29478552,-54.63822018,-60.55745475
-168.04179713,-57.18704541,-169.06067610

>  <CHROM.1>
100.96100585,-6.71372220,-27.88022079,15.21107945,-16.23408039,2.31145899
-0.32462629,0.57136082

>  <Name>
P29568059

>  <RI>
0

>  <Rbt.Current_Directory>
/home/fstefaniak/projects/zuza/docking/adenine/4TZX

>  <Rbt.Executable>
rbdock ($Id: //depot/dev/client3/rdock/2013.1/src/exe/rbdock.cxx#4 $)

>  <Rbt.Library>
libRbt.so (2013.1, Build901 2013/11/27)

>  <Rbt.Parameter_File>
/home/fstefaniak/progs/rDock//data/scripts/dock_solv.prm

>  <Rbt.Receptor>
4tzx.prm

>  <SCORE>
-44.29

>  <SCORE.INTER>
-26.0329

>  <SCORE.INTER.CONST>
1

>  <SCORE.INTER.POLAR>
-3.47953

>  <SCORE.INTER.ROT>
2

>  <SCORE.INTER.SOLV>
10.5754

>  <SCORE.INTER.VDW>
-14.2153

>  <SCORE.INTER.norm>
-2.36663

>  <SCORE.INTRA>
1.37708

>  <SCORE.INTRA.DIHEDRAL>
3.18408

>  <SCORE.INTRA.DIHEDRAL.0>
1.23488

>  <SCORE.INTRA.POLAR>
0

>  <SCORE.INTRA.POLAR.0>
0

>  <SCORE.INTRA.REPUL>
0

>  <SCORE.INTRA.REPUL.0>
0

>  <SCORE.INTRA.SOLV>
0.0646804

>  <SCORE.INTRA.SOLV.lig_0>
-11.9379

>  <SCORE.INTRA.VDW>
-0.247306

>  <SCORE.INTRA.VDW.0>
-0.572882

>  <SCORE.INTRA.norm>
0.125189

>  <SCORE.RESTR>
0

>  <SCORE.RESTR.CAVITY>
0

>  <SCORE.RESTR.norm>
0

>  <SCORE.SYSTEM>
-19.6342

>  <SCORE.SYSTEM.CONST>
0

>  <SCORE.SYSTEM.DIHEDRAL>
7.31528

>  <SCORE.SYSTEM.POLAR>
-3.06882

>  <SCORE.SYSTEM.SOLV>
0.133786

>  <SCORE.SYSTEM.VDW>
-5.34308

>  <SCORE.SYSTEM.norm>
-1.78493

>  <SCORE.heavy>
11

>  <SCORE.norm>
-4.02637

$$$$
P29568059
 OpenBabel12072022113D
libRbt.so/2013.1/901 2013/11/27
 13 13  0  0  0  0  0  0  0  0999 V2000
  -29.6149   17.3469  -16.8360 C   0  0  0  0  0  0  0  0  0  0  0  0
  -28.8128   16.2157  -15.7204 S   0  0  0  0  0  0  0  0  0  0  0  0
  -27.9524   16.9770  -14.8406 O   0  0  0  0  0  0  0  0  0  0  0  0
  -29.8383   15.3451  -15.1864 O   0  0  0  0  0  0  0  0  0  0  0  0
  -27.8393   15.3398  -16.7999 N   0  0  0  0  0  0  0  0  0  0  0  0
  -26.4104   15.7304  -16.8890 C   0  0  0  0  0  0  0  0  0  0  0  0
  -25.5523   14.9681  -15.8828 C   0  0  0  0  0  0  0  0  0  0  0  0
  -25.7751   13.4618  -15.9634 C   0  0  0  0  0  0  0  0  0  0  0  0
  -27.2641   13.1294  -15.8787 C   0  0  0  0  0  0  0  0  0  0  0  0
  -28.1029   13.9024  -16.9050 C   0  0  2  0  0  0  0  0  0  0  0  0
  -27.8495   13.4567  -18.2688 N   0  0  0  0  0  0  0  0  0  0  0  0
  -27.6531   14.2715  -18.8465 H   0  0  0  0  0  0  0  0  0  0  0  0
  -28.6854   13.0322  -18.6543 H   0  0  0  0  0  0  0  0  0  0  0  0
  1  2  1  0  0  0  0
  2  3  2  0  0  0  0
  2  4  2  0  0  0  0
  2  5  1  0  0  0  0
  5  6  1  0  0  0  0
  5 10  1  0  0  0  0
  6  7  1  0  0  0  0
  7  8  1  0  0  0  0
  8  9  1  0  0  0  0
  9 10  1  0  0  0  0
 10 11  1  6  0  0  0
 11 12  1  0  0  0  0
 11 13  1  0  0  0  0
M  END
>  <CHROM.0>
-58.68641354,-158.70270583,-62.80669041,-43.29355822,-55.62502704,-62.63435619
-68.32865045,60.43212053,-168.94652598

>  <CHROM.1>
99.44714879,-6.42718753,-27.87741006,15.22178616,-16.22978490,2.31359693
-0.30852798,0.57084205

>  <Name>
P29568059

>  <RI>
0

>  <Rbt.Current_Directory>
/home/fstefaniak/projects/zuza/docking/adenine/4TZX

>  <Rbt.Executable>
rbdock ($Id: //depot/dev/client3/rdock/2013.1/src/exe/rbdock.cxx#4 $)

>  <Rbt.Library>
libRbt.so (2013.1, Build901 2013/11/27)

>  <Rbt.Parameter_File>
/home/fstefaniak/progs/rDock//data/scripts/dock_solv.prm

>  <Rbt.Receptor>
4tzx.prm

>  <SCORE>
-44.0072

>  <SCORE.INTER>
-26.0592

>  <SCORE.INTER.CONST>
1

>  <SCORE.INTER.POLAR>
-3.47871

>  <SCORE.INTER.ROT>
2

>  <SCORE.INTER.SOLV>
10.6285

>  <SCORE.INTER.VDW>
-14.2533

>  <SCORE.INTER.norm>
-2.36901

>  <SCORE.INTRA>
1.3559

>  <SCORE.INTRA.DIHEDRAL>
3.15412

>  <SCORE.INTRA.DIHEDRAL.0>
1.23488

>  <SCORE.INTRA.POLAR>
0

>  <SCORE.INTRA.POLAR.0>
0

>  <SCORE.INTRA.REPUL>
0

>  <SCORE.INTRA.REPUL.0>
0

>  <SCORE.INTRA.SOLV>
0.0631168

>  <SCORE.INTRA.SOLV.lig_0>
-11.9379

>  <SCORE.INTRA.VDW>
-0.252712

>  <SCORE.INTRA.VDW.0>
-0.572882

>  <SCORE.INTRA.norm>
0.123264

>  <SCORE.RESTR>
0

>  <SCORE.RESTR.CAVITY>
0

>  <SCORE.RESTR.norm>
0

>  <SCORE.SYSTEM>
-19.3039

>  <SCORE.SYSTEM.CONST>
0

>  <SCORE.SYSTEM.DIHEDRAL>
6.36581

>  <SCORE.SYSTEM.POLAR>
-3.06482

>  <SCORE.SYSTEM.SOLV>
-0.0228024

>  <SCORE.SYSTEM.VDW>
-4.76754

>  <SCORE.SYSTEM.norm>
-1.7549

>  <SCORE.heavy>
11

>  <SCORE.norm>
-4.00065

$$$$
P29568059
 OpenBabel12072022113D
libRbt.so/2013.1/901 2013/11/27
 13 13  0  0  0  0  0  0  0  0999 V2000
  -29.6125   17.3814  -16.7878 C   0  0  0  0  0  0  0  0  0  0  0  0
  -28.8159   16.2375  -15.6811 S   0  0  0  0  0  0  0  0  0  0  0  0
  -27.9359   16.9854  -14.8093 O   0  0  0  0  0  0  0  0  0  0  0  0
  -29.8487   15.3816  -15.1376 O   0  0  0  0  0  0  0  0  0  0  0  0
  -27.8661   15.3486  -16.7710 N   0  0  0  0  0  0  0  0  0  0  0  0
  -26.4320   15.7166  -16.8721 C   0  0  0  0  0  0  0  0  0  0  0  0
  -25.5773   14.9387  -15.8750 C   0  0  0  0  0  0  0  0  0  0  0  0
  -25.8247   13.4363  -15.9565 C   0  0  0  0  0  0  0  0  0  0  0  0
  -27.3181   13.1274  -15.8592 C   0  0  0  0  0  0  0  0  0  0  0  0
  -28.1535   13.9157  -16.8765 C   0  0  2  0  0  0  0  0  0  0  0  0
  -27.9194   13.4689  -18.2434 N   0  0  0  0  0  0  0  0  0  0  0  0
  -27.7403   14.2840  -18.8262 H   0  0  0  0  0  0  0  0  0  0  0  0
  -28.7578   13.0358  -18.6135 H   0  0  0  0  0  0  0  0  0  0  0  0
  1  2  1  0  0  0  0
  2  3  2  0  0  0  0
  2  4  2  0  0  0  0
  2  5  1  0  0  0  0
  5  6  1  0  0  0  0
  5 10  1  0  0  0  0
  6  7  1  0  0  0  0
  7  8  1  0  0  0  0
  8  9  1  0  0  0  0
  9 10  1  0  0  0  0
 10 11  1  6  0  0  0
 11 12  1  0  0  0  0
 11 13  1  0  0  0  0
M  END
>  <CHROM.0>
-61.49064787,-162.60336409,-65.36440917,-43.09189715,-177.15000668,-177.11419269
-66.97000591,58.48653384,-169.78609902

>  <CHROM.1>
99.56248340,-7.95438398,-27.90124232,15.22979386,-16.20075458,2.29433497
-0.30947353,0.56681830

>  <Name>
P29568059

>  <RI>
0

>  <Rbt.Current_Directory>
/home/fstefaniak/projects/zuza/docking/adenine/4TZX

>  <Rbt.Executable>
rbdock ($Id: //depot/dev/client3/rdock/2013.1/src/exe/rbdock.cxx#4 $)

>  <Rbt.Library>
libRbt.so (2013.1, Build901 2013/11/27)

>  <Rbt.Parameter_File>
/home/fstefaniak/progs/rDock//data/scripts/dock_solv.prm

>  <Rbt.Receptor>
4tzx.prm

>  <SCORE>
-43.9797

>  <SCORE.INTER>
-25.7514

>  <SCORE.INTER.CONST>
1

>  <SCORE.INTER.POLAR>
-3.45951

>  <SCORE.INTER.ROT>
2

>  <SCORE.INTER.SOLV>
10.5916

>  <SCORE.INTER.VDW>
-14.0998

>  <SCORE.INTER.norm>
-2.34104

>  <SCORE.INTRA>
1.33747

>  <SCORE.INTRA.DIHEDRAL>
3.13201

>  <SCORE.INTRA.DIHEDRAL.0>
1.23488

>  <SCORE.INTRA.POLAR>
0

>  <SCORE.INTRA.POLAR.0>
0

>  <SCORE.INTRA.REPUL>
0

>  <SCORE.INTRA.REPUL.0>
0

>  <SCORE.INTRA.SOLV>
0.0615391

>  <SCORE.INTRA.SOLV.lig_0>
-11.9379

>  <SCORE.INTRA.VDW>
-0.259299

>  <SCORE.INTRA.VDW.0>
-0.572882

>  <SCORE.INTRA.norm>
0.121589

>  <SCORE.RESTR>
0

>  <SCORE.RESTR.CAVITY>
0

>  <SCORE.RESTR.norm>
0

>  <SCORE.SYSTEM>
-19.5658

>  <SCORE.SYSTEM.CONST>
0

>  <SCORE.SYSTEM.DIHEDRAL>
5.6789

>  <SCORE.SYSTEM.POLAR>
-3.02209

>  <SCORE.SYSTEM.SOLV>
-0.330796

>  <SCORE.SYSTEM.VDW>
-4.75291

>  <SCORE.SYSTEM.norm>
-1.77871

>  <SCORE.heavy>
11

>  <SCORE.norm>
-3.99816

$$$$
P30393900
 OpenBabel12072022113D
libRbt.so/2013.1/901 2013/11/27
 14 14  0  0  0  0  0  0  0  0999 V2000
  -29.0052   15.0789  -16.1041 C   0  0  0  0  0  0  0  0  0  0  0  0
  -28.3429   16.4022  -16.4783 C   0  0  2  0  0  0  0  0  0  0  0  0
  -26.8579   16.4016  -16.0314 C   0  0  0  0  0  0  0  0  0  0  0  0
  -25.9683   15.7319  -16.5447 O   0  0  0  0  0  0  0  0  0  0  0  0
  -26.5793   17.2779  -15.0152 N   0  0  0  0  0  0  0  0  0  0  0  0
  -28.9841   17.6511  -15.9966 N   0  0  0  0  0  0  0  0  0  0  0  0
  -29.7711   18.3666  -17.0151 C   0  0  0  0  0  0  0  0  0  0  0  0
  -31.2726   18.0146  -17.0972 C   0  0  0  0  0  0  0  0  0  0  0  0
  -31.9424   18.0577  -15.7931 N   0  0  0  0  0  0  0  0  0  0  0  0
  -31.2293   17.2046  -14.8362 C   0  0  0  0  0  0  0  0  0  0  0  0
  -29.7249   17.5430  -14.7265 C   0  0  0  0  0  0  0  0  0  0  0  0
  -25.6243   17.2752  -14.6709 H   0  0  0  0  0  0  0  0  0  0  0  0
  -27.0977   18.1445  -15.0016 H   0  0  0  0  0  0  0  0  0  0  0  0
  -32.9025   17.7307  -15.8908 H   0  0  0  0  0  0  0  0  0  0  0  0
  2  3  1  0  0  0  0
  2  6  1  0  0  0  0
  2  1  1  1  0  0  0
  3  4  2  0  0  0  0
  3  5  1  0  0  0  0
  5 12  1  0  0  0  0
  5 13  1  0  0  0  0
  6  7  1  0  0  0  0
  6 11  1  0  0  0  0
  7  8  1  0  0  0  0
  8  9  1  0  0  0  0
  9 10  1  0  0  0  0
  9 14  1  0  0  0  0
 10 11  1  0  0  0  0
M  END
>  <CHROM.0>
-56.14418649,-61.43979715,-64.46334262,49.71546800,-177.72514528,-62.61605105
-67.27809192,-173.19370809,-167.52365455

>  <CHROM.1>
70.70662687,-101.93946198,177.49721016,-29.04527116,17.06194298,-15.95630227
0.27080157,0.20014170,-2.49495007

>  <Name>
P30393900

>  <RI>
0

>  <Rbt.Current_Directory>
/home/fstefaniak/projects/zuza/docking/adenine/4TZX

>  <Rbt.Executable>
rbdock ($Id: //depot/dev/client3/rdock/2013.1/src/exe/rbdock.cxx#4 $)

>  <Rbt.Library>
libRbt.so (2013.1, Build901 2013/11/27)

>  <Rbt.Parameter_File>
/home/fstefaniak/progs/rDock//data/scripts/dock_solv.prm

>  <Rbt.Receptor>
4tzx.prm

>  <SCORE>
-39.4681

>  <SCORE.INTER>
-23.056

>  <SCORE.INTER.CONST>
1

>  <SCORE.INTER.POLAR>
-3.23103

>  <SCORE.INTER.ROT>
3

>  <SCORE.INTER.SOLV>
12.6678

>  <SCORE.INTER.VDW>
-14.4232

>  <SCORE.INTER.norm>
-2.096

>  <SCORE.INTRA>
1.77586

>  <SCORE.INTRA.DIHEDRAL>
2.58949

>  <SCORE.INTRA.DIHEDRAL.0>
1.73585

>  <SCORE.INTRA.POLAR>
0.0101947

>  <SCORE.INTRA.POLAR.0>
-0.0912391

>  <SCORE.INTRA.REPUL>
0

>  <SCORE.INTRA.REPUL.0>
0

>  <SCORE.INTRA.SOLV>
-0.0064672

>  <SCORE.INTRA.SOLV.lig_0>
-15.622

>  <SCORE.INTRA.VDW>
0.449686

>  <SCORE.INTRA.VDW.0>
1.25119

>  <SCORE.INTRA.norm>
0.161442

>  <SCORE.RESTR>
0

>  <SCORE.RESTR.CAVITY>
0

>  <SCORE.RESTR.norm>
0

>  <SCORE.SYSTEM>
-18.188

>  <SCORE.SYSTEM.CONST>
0

>  <SCORE.SYSTEM.DIHEDRAL>
3.96814

>  <SCORE.SYSTEM.POLAR>
-2.50597

>  <SCORE.SYSTEM.SOLV>
-0.183121

>  <SCORE.SYSTEM.VDW>
-5.0338

>  <SCORE.SYSTEM.norm>
-1.65346

>  <SCORE.heavy>
11

>  <SCORE.norm>
-3.58801

$$$$
P30393900
 OpenBabel12072022113D
libRbt.so/2013.1/901 2013/11/27
 14 14  0  0  0  0  0  0  0  0999 V2000
  -30.2353   18.7230  -19.2935 C   0  0  0  0  0  0  0  0  0  0  0  0
  -30.8418   17.9924  -18.0985 C   0  0  2  0  0  0  0  0  0  0  0  0
  -32.2014   18.6321  -17.7150 C   0  0  0  0  0  0  0  0  0  0  0  0
  -32.4408   19.1928  -16.6513 O   0  0  0  0  0  0  0  0  0  0  0  0
  -33.1453   18.5765  -18.7071 N   0  0  0  0  0  0  0  0  0  0  0  0
  -30.0111   17.8709  -16.8745 N   0  0  0  0  0  0  0  0  0  0  0  0
  -30.7731   17.6093  -15.6418 C   0  0  0  0  0  0  0  0  0  0  0  0
  -30.9733   16.1268  -15.2580 C   0  0  0  0  0  0  0  0  0  0  0  0
  -29.7243   15.3582  -15.2738 N   0  0  0  0  0  0  0  0  0  0  0  0
  -29.0633   15.5047  -16.5752 C   0  0  0  0  0  0  0  0  0  0  0  0
  -28.8410   16.9801  -16.9794 C   0  0  0  0  0  0  0  0  0  0  0  0
  -33.2539   19.4147  -19.2692 H   0  0  0  0  0  0  0  0  0  0  0  0
  -33.3035   17.6779  -19.1400 H   0  0  0  0  0  0  0  0  0  0  0  0
  -29.9262   14.3740  -15.1035 H   0  0  0  0  0  0  0  0  0  0  0  0
  2  3  1  0  0  0  0
  2  6  1  0  0  0  0
  2  1  1  6  0  0  0
  3  4  2  0  0  0  0
  3  5  1  0  0  0  0
  5 12  1  0  0  0  0
  5 13  1  0  0  0  0
  6  7  1  0  0  0  0
  6 11  1  0  0  0  0
  7  8  1  0  0  0  0
  8  9  1  0  0  0  0
  9 10  1  0  0  0  0
  9 14  1  0  0  0  0
 10 11  1  0  0  0  0
M  END
>  <CHROM.0>
-62.01636652,50.10040513,-59.38578645,-43.73217132,-56.57230100,-67.46189427
-62.34323370,-54.16506861,-169.05552177

>  <CHROM.1>
-116.26013596,159.19009441,-98.24756010,-30.77584891,17.51083532,-17.01630770
-2.23842692,-0.45738194,2.11385011

>  <Name>
P30393900

>  <RI>
0

>  <Rbt.Current_Directory>
/home/fstefaniak/projects/zuza/docking/adenine/4TZX

>  <Rbt.Executable>
rbdock ($Id: //depot/dev/client3/rdock/2013.1/src/exe/rbdock.cxx#4 $)

>  <Rbt.Library>
libRbt.so (2013.1, Build901 2013/11/27)

>  <Rbt.Parameter_File>
/home/fstefaniak/progs/rDock//data/scripts/dock_solv.prm

>  <Rbt.Receptor>
4tzx.prm

>  <SCORE>
-38.2636

>  <SCORE.INTER>
-21.6915

>  <SCORE.INTER.CONST>
1

>  <SCORE.INTER.POLAR>
-4.78371

>  <SCORE.INTER.ROT>
3

>  <SCORE.INTER.SOLV>
15.2925

>  <SCORE.INTER.VDW>
-9.2128

>  <SCORE.INTER.norm>
-1.97195

>  <SCORE.INTRA>
3.48263

>  <SCORE.INTRA.DIHEDRAL>
0.0101199

>  <SCORE.INTRA.DIHEDRAL.0>
1.73585

>  <SCORE.INTRA.POLAR>
0.0912391

>  <SCORE.INTRA.POLAR.0>
-0.0912391

>  <SCORE.INTRA.REPUL>
0

>  <SCORE.INTRA.REPUL.0>
0

>  <SCORE.INTRA.SOLV>
-0.197121

>  <SCORE.INTRA.SOLV.lig_0>
-15.622

>  <SCORE.INTRA.VDW>
3.26592

>  <SCORE.INTRA.VDW.0>
1.25119

>  <SCORE.INTRA.norm>
0.316603

>  <SCORE.RESTR>
0

>  <SCORE.RESTR.CAVITY>
0

>  <SCORE.RESTR.norm>
0

>  <SCORE.SYSTEM>
-20.0547

>  <SCORE.SYSTEM.CONST>
0

>  <SCORE.SYSTEM.DIHEDRAL>
4.8123

>  <SCORE.SYSTEM.POLAR>
-3.08735

>  <SCORE.SYSTEM.SOLV>
0.294459

>  <SCORE.SYSTEM.VDW>
-4.7809

>  <SCORE.SYSTEM.norm>
-1.82316

>  <SCORE.heavy>
11

>  <SCORE.norm>
-3.47851

$$$$
P30393900
 OpenBabel12072022113D
libRbt.so/2013.1/901 2013/11/27
 14 14  0  0  0  0  0  0  0  0999 V2000
  -29.0229   15.0518  -16.0874 C   0  0  0  0  0  0  0  0  0  0  0  0
  -28.3592   16.3688  -16.4808 C   0  0  2  0  0  0  0  0  0  0  0  0
  -26.8672   16.3624  -16.0578 C   0  0  0  0  0  0  0  0  0  0  0  0
  -26.3806   17.0686  -15.1816 O   0  0  0  0  0  0  0  0  0  0  0  0
  -26.1027   15.4363  -16.7182 N   0  0  0  0  0  0  0  0  0  0  0  0
  -28.9855   17.6244  -15.9969 N   0  0  0  0  0  0  0  0  0  0  0  0
  -29.7639   18.3510  -17.0140 C   0  0  0  0  0  0  0  0  0  0  0  0
  -31.2696   18.0170  -17.0967 C   0  0  0  0  0  0  0  0  0  0  0  0
  -31.9387   18.0659  -15.7924 N   0  0  0  0  0  0  0  0  0  0  0  0
  -31.2357   17.2027  -14.8370 C   0  0  0  0  0  0  0  0  0  0  0  0
  -29.7274   17.5229  -14.7269 C   0  0  0  0  0  0  0  0  0  0  0  0
  -25.0978   15.5739  -16.6768 H   0  0  0  0  0  0  0  0  0  0  0  0
  -26.4620   14.4936  -16.7644 H   0  0  0  0  0  0  0  0  0  0  0  0
  -32.9027   17.7505  -15.8906 H   0  0  0  0  0  0  0  0  0  0  0  0
  2  3  1  0  0  0  0
  2  6  1  0  0  0  0
  2  1  1  1  0  0  0
  3  4  2  0  0  0  0
  3  5  1  0  0  0  0
  5 12  1  0  0  0  0
  5 13  1  0  0  0  0
  6  7  1  0  0  0  0
  6 11  1  0  0  0  0
  7  8  1  0  0  0  0
  8  9  1  0  0  0  0
  9 10  1  0  0  0  0
  9 14  1  0  0  0  0
 10 11  1  0  0  0  0
M  END
>  <CHROM.0>
-59.53362217,50.88621493,-66.98576751,-42.87753313,-59.24632155,-178.72796194
-69.41912096,-60.62743437,-168.97522303

>  <CHROM.1>
-111.96697333,-103.02772802,162.86259442,-29.04076589,16.98657635,-15.99403279
0.37464393,0.03684225,-2.95964646

>  <Name>
P30393900

>  <RI>
0

>  <Rbt.Current_Directory>
/home/fstefaniak/projects/zuza/docking/adenine/4TZX

>  <Rbt.Executable>
rbdock ($Id: //depot/dev/client3/rdock/2013.1/src/exe/rbdock.cxx#4 $)

>  <Rbt.Library>
libRbt.so (2013.1, Build901 2013/11/27)

>  <Rbt.Parameter_File>
/home/fstefaniak/progs/rDock//data/scripts/dock_solv.prm

>  <Rbt.Receptor>
4tzx.prm

>  <SCORE>
-38.233

>  <SCORE.INTER>
-19.2957

>  <SCORE.INTER.CONST>
1

>  <SCORE.INTER.POLAR>
-2.5135

>  <SCORE.INTER.ROT>
3

>  <SCORE.INTER.SOLV>
12.6879

>  <SCORE.INTER.VDW>
-14.3148

>  <SCORE.INTER.norm>
-1.75415

>  <SCORE.INTRA>
1.2498

>  <SCORE.INTRA.DIHEDRAL>
1.23325

>  <SCORE.INTRA.DIHEDRAL.0>
1.73585

>  <SCORE.INTRA.POLAR>
0.0912391

>  <SCORE.INTRA.POLAR.0>
-0.0912391

>  <SCORE.INTRA.REPUL>
0

>  <SCORE.INTRA.REPUL.0>
0

>  <SCORE.INTRA.SOLV>
-0.541237

>  <SCORE.INTRA.SOLV.lig_0>
-15.622

>  <SCORE.INTRA.VDW>
0.59358

>  <SCORE.INTRA.VDW.0>
1.25119

>  <SCORE.INTRA.norm>
0.113618

>  <SCORE.RESTR>
0

>  <SCORE.RESTR.CAVITY>
0

>  <SCORE.RESTR.norm>
0

>  <SCORE.SYSTEM>
-20.1871

>  <SCORE.SYSTEM.CONST>
0

>  <SCORE.SYSTEM.DIHEDRAL>
4.99814

>  <SCORE.SYSTEM.POLAR>
-3.08544

>  <SCORE.SYSTEM.SOLV>
0.153229

>  <SCORE.SYSTEM.VDW>
-4.89038

>  <SCORE.SYSTEM.norm>
-1.83519

>  <SCORE.heavy>
11

>  <SCORE.norm>
-3.47573

$$$$
P32736201
 OpenBabel12072022113D
libRbt.so/2013.1/901 2013/11/27
 12 12  0  0  0  0  0  0  0  0999 V2000
  -30.1412   16.1212  -16.1212 C   0  0  0  0  0  0  0  0  0  0  0  0
  -29.7300   17.5582  -16.4105 C   0  0  2  0  0  0  0  0  0  0  0  0
  -30.7042   18.6454  -15.9335 C   0  0  1  0  0  0  0  0  0  0  0  0
  -31.5362   18.9295  -17.1675 C   0  0  1  0  0  0  0  0  0  0  0  0
  -30.5021   18.7229  -18.2756 C   0  0  1  0  0  0  0  0  0  0  0  0
  -29.5917   17.7107  -17.8363 O   0  0  0  0  0  0  0  0  0  0  0  0
  -31.1202   18.3378  -19.4876 O   0  0  0  0  0  0  0  0  0  0  0  0
  -32.6083   17.9725  -17.2785 O   0  0  0  0  0  0  0  0  0  0  0  0
  -31.5061   18.2986  -14.8133 O   0  0  0  0  0  0  0  0  0  0  0  0
  -31.7271   17.6186  -19.2258 H   0  0  0  0  0  0  0  0  0  0  0  0
  -32.8958   17.7853  -16.3651 H   0  0  0  0  0  0  0  0  0  0  0  0
  -30.8974   18.0241  -14.1022 H   0  0  0  0  0  0  0  0  0  0  0  0
  2  3  1  0  0  0  0
  2  6  1  0  0  0  0
  2  1  1  6  0  0  0
  3  4  1  0  0  0  0
  3  9  1  1  0  0  0
  4  8  1  6  0  0  0
  4  5  1  0  0  0  0
  5  6  1  0  0  0  0
  5  7  1  6  0  0  0
  7 10  1  0  0  0  0
  8 11  1  0  0  0  0
  9 12  1  0  0  0  0
M  END
>  <CHROM.0>
-60.92334300,-177.40205467,-63.59247646,-41.88742336,-56.03857461,-65.64320919
-67.75200321,-57.97370690,-169.67610991

>  <CHROM.1>
55.11317472,35.77459143,-48.21675047,-30.87298231,18.00337471,-17.03986873
-1.55414332,0.54367972,-1.39915553

>  <Name>
P32736201

>  <RI>
0

>  <Rbt.Current_Directory>
/home/fstefaniak/projects/zuza/docking/adenine/4TZX

>  <Rbt.Executable>
rbdock ($Id: //depot/dev/client3/rdock/2013.1/src/exe/rbdock.cxx#4 $)

>  <Rbt.Library>
libRbt.so (2013.1, Build901 2013/11/27)

>  <Rbt.Parameter_File>
/home/fstefaniak/progs/rDock//data/scripts/dock_solv.prm

>  <Rbt.Receptor>
4tzx.prm

>  <SCORE>
-51.4535

>  <SCORE.INTER>
-28.8274

>  <SCORE.INTER.CONST>
1

>  <SCORE.INTER.POLAR>
-4.33901

>  <SCORE.INTER.ROT>
0

>  <SCORE.INTER.SOLV>
12.9505

>  <SCORE.INTER.VDW>
-12.6718

>  <SCORE.INTER.norm>
-3.20305

>  <SCORE.INTRA>
-1.68154

>  <SCORE.INTRA.DIHEDRAL>
-1.3684

>  <SCORE.INTRA.DIHEDRAL.0>
4.76642

>  <SCORE.INTRA.POLAR>
-0.185148

>  <SCORE.INTRA.POLAR.0>
-0.323118

>  <SCORE.INTRA.REPUL>
0

>  <SCORE.INTRA.REPUL.0>
0

>  <SCORE.INTRA.SOLV>
-0.0787763

>  <SCORE.INTRA.SOLV.lig_0>
-15.752

>  <SCORE.INTRA.VDW>
-0.328456

>  <SCORE.INTRA.VDW.0>
0.732915

>  <SCORE.INTRA.norm>
-0.186838

>  <SCORE.RESTR>
0

>  <SCORE.RESTR.CAVITY>
0

>  <SCORE.RESTR.norm>
0

>  <SCORE.SYSTEM>
-20.9445

>  <SCORE.SYSTEM.CONST>
0

>  <SCORE.SYSTEM.DIHEDRAL>
4.65475

>  <SCORE.SYSTEM.POLAR>
-3.05632

>  <SCORE.SYSTEM.SOLV>
0.15664

>  <SCORE.SYSTEM.VDW>
-5.37903

>  <SCORE.SYSTEM.norm>
-2.32716

>  <SCORE.heavy>
9

>  <SCORE.norm>
-5.71705

$$$$
P32736201
 OpenBabel12072022113D
libRbt.so/2013.1/901 2013/11/27
 12 12  0  0  0  0  0  0  0  0999 V2000
  -30.1710   16.1681  -16.0790 C   0  0  0  0  0  0  0  0  0  0  0  0
  -29.7676   17.6032  -16.3885 C   0  0  2  0  0  0  0  0  0  0  0  0
  -30.7531   18.6910  -15.9368 C   0  0  1  0  0  0  0  0  0  0  0  0
  -31.5773   18.9491  -17.1817 C   0  0  1  0  0  0  0  0  0  0  0  0
  -30.5332   18.7319  -18.2782 C   0  0  1  0  0  0  0  0  0  0  0  0
  -29.6192   17.7334  -17.8154 O   0  0  0  0  0  0  0  0  0  0  0  0
  -31.1391   18.3228  -19.4885 O   0  0  0  0  0  0  0  0  0  0  0  0
  -32.6418   17.9828  -17.2853 O   0  0  0  0  0  0  0  0  0  0  0  0
  -31.5613   18.3568  -14.8173 O   0  0  0  0  0  0  0  0  0  0  0  0
  -31.7323   17.5941  -19.2218 H   0  0  0  0  0  0  0  0  0  0  0  0
  -32.9243   17.7964  -16.3702 H   0  0  0  0  0  0  0  0  0  0  0  0
  -30.9557   18.1247  -14.0888 H   0  0  0  0  0  0  0  0  0  0  0  0
  2  3  1  0  0  0  0
  2  6  1  0  0  0  0
  2  1  1  6  0  0  0
  3  4  1  0  0  0  0
  3  9  1  1  0  0  0
  4  8  1  6  0  0  0
  4  5  1  0  0  0  0
  5  6  1  0  0  0  0
  5  7  1  6  0  0  0
  7 10  1  0  0  0  0
  8 11  1  0  0  0  0
  9 12  1  0  0  0  0
M  END
>  <CHROM.0>
-59.98071776,-173.73059147,-64.72439331,-41.67669540,-57.77537606,-172.75556349
-63.22457150,-58.83288502,-168.79894040

>  <CHROM.1>
56.82374064,34.78483278,-49.09104692,-30.90853963,18.02994380,-17.03376531
-1.56208579,0.53586852,-1.41194313

>  <Name>
P32736201

>  <RI>
0

>  <Rbt.Current_Directory>
/home/fstefaniak/projects/zuza/docking/adenine/4TZX

>  <Rbt.Executable>
rbdock ($Id: //depot/dev/client3/rdock/2013.1/src/exe/rbdock.cxx#4 $)

>  <Rbt.Library>
libRbt.so (2013.1, Build901 2013/11/27)

>  <Rbt.Parameter_File>
/home/fstefaniak/progs/rDock//data/scripts/dock_solv.prm

>  <Rbt.Receptor>
4tzx.prm

>  <SCORE>
-51.193

>  <SCORE.INTER>
-28.8294

>  <SCORE.INTER.CONST>
1

>  <SCORE.INTER.POLAR>
-4.35603

>  <SCORE.INTER.ROT>
0

>  <SCORE.INTER.SOLV>
13.0228

>  <SCORE.INTER.VDW>
-12.6404

>  <SCORE.INTER.norm>
-3.20326

>  <SCORE.INTRA>
-1.66537

>  <SCORE.INTRA.DIHEDRAL>
-1.36077

>  <SCORE.INTRA.DIHEDRAL.0>
4.76642

>  <SCORE.INTRA.POLAR>
-0.176757

>  <SCORE.INTRA.POLAR.0>
-0.323118

>  <SCORE.INTRA.REPUL>
0

>  <SCORE.INTRA.REPUL.0>
0

>  <SCORE.INTRA.SOLV>
-0.0786449

>  <SCORE.INTRA.SOLV.lig_0>
-15.752

>  <SCORE.INTRA.VDW>
-0.344691

>  <SCORE.INTRA.VDW.0>
0.732915

>  <SCORE.INTRA.norm>
-0.185041

>  <SCORE.RESTR>
0

>  <SCORE.RESTR.CAVITY>
0

>  <SCORE.RESTR.norm>
0

>  <SCORE.SYSTEM>
-20.6983

>  <SCORE.SYSTEM.CONST>
0

>  <SCORE.SYSTEM.DIHEDRAL>
4.77005

>  <SCORE.SYSTEM.POLAR>
-3.07428

>  <SCORE.SYSTEM.SOLV>
0.0547085

>  <SCORE.SYSTEM.VDW>
-5.15952

>  <SCORE.SYSTEM.norm>
-2.29981

>  <SCORE.heavy>
9

>  <SCORE.norm>
-5.68812

$$$$
P32736201
 OpenBabel12072022113D
libRbt.so/2013.1/901 2013/11/27
 12 12  0  0  0  0  0  0  0  0999 V2000
  -30.1452   16.1201  -16.0813 C   0  0  0  0  0  0  0  0  0  0  0  0
  -29.7306   17.5562  -16.3707 C   0  0  2  0  0  0  0  0  0  0  0  0
  -30.7122   18.6448  -15.9125 C   0  0  1  0  0  0  0  0  0  0  0  0
  -31.5264   18.9230  -17.1597 C   0  0  1  0  0  0  0  0  0  0  0  0
  -30.4763   18.7124  -18.2518 C   0  0  1  0  0  0  0  0  0  0  0  0
  -29.5718   17.7026  -17.7949 O   0  0  0  0  0  0  0  0  0  0  0  0
  -31.0765   18.3217  -19.4709 O   0  0  0  0  0  0  0  0  0  0  0  0
  -32.5962   17.9649  -17.2821 O   0  0  0  0  0  0  0  0  0  0  0  0
  -31.5301   18.3022  -14.8026 O   0  0  0  0  0  0  0  0  0  0  0  0
  -31.6986   17.6144  -19.2126 H   0  0  0  0  0  0  0  0  0  0  0  0
  -32.8968   17.7814  -16.3721 H   0  0  0  0  0  0  0  0  0  0  0  0
  -30.9308   18.0858  -14.0641 H   0  0  0  0  0  0  0  0  0  0  0  0
  2  3  1  0  0  0  0
  2  6  1  0  0  0  0
  2  1  1  6  0  0  0
  3  4  1  0  0  0  0
  3  9  1  1  0  0  0
  4  8  1  6  0  0  0
  4  5  1  0  0  0  0
  5  6  1  0  0  0  0
  5  7  1  6  0  0  0
  7 10  1  0  0  0  0
  8 11  1  0  0  0  0
  9 12  1  0  0  0  0
M  END
>  <CHROM.0>
-54.49729971,-170.67478235,-61.58888458,-43.41110947,-55.63734655,-58.08404449
-64.97057866,-58.87575556,-168.61749891

>  <CHROM.1>
58.63723185,35.77445325,-47.22451352,-30.86469376,17.99838352,-17.01833633
-1.57073907,0.54075158,-1.39567371

>  <Name>
P32736201

>  <RI>
0

>  <Rbt.Current_Directory>
/home/fstefaniak/projects/zuza/docking/adenine/4TZX

>  <Rbt.Executable>
rbdock ($Id: //depot/dev/client3/rdock/2013.1/src/exe/rbdock.cxx#4 $)

>  <Rbt.Library>
libRbt.so (2013.1, Build901 2013/11/27)

>  <Rbt.Parameter_File>
/home/fstefaniak/progs/rDock//data/scripts/dock_solv.prm

>  <Rbt.Receptor>
4tzx.prm

>  <SCORE>
-51.1596

>  <SCORE.INTER>
-28.6387

>  <SCORE.INTER.CONST>
1

>  <SCORE.INTER.POLAR>
-4.28786

>  <SCORE.INTER.ROT>
0

>  <SCORE.INTER.SOLV>
12.9778

>  <SCORE.INTER.VDW>
-12.7255

>  <SCORE.INTER.norm>
-3.18208

>  <SCORE.INTRA>
-1.79262

>  <SCORE.INTRA.DIHEDRAL>
-1.36388

>  <SCORE.INTRA.DIHEDRAL.0>
4.76642

>  <SCORE.INTRA.POLAR>
-0.213413

>  <SCORE.INTRA.POLAR.0>
-0.323118

>  <SCORE.INTRA.REPUL>
0

>  <SCORE.INTRA.REPUL.0>
0

>  <SCORE.INTRA.SOLV>
-0.0770433

>  <SCORE.INTRA.SOLV.lig_0>
-15.752

>  <SCORE.INTRA.VDW>
-0.346553

>  <SCORE.INTRA.VDW.0>
0.732915

>  <SCORE.INTRA.norm>
-0.19918

>  <SCORE.RESTR>
0

>  <SCORE.RESTR.CAVITY>
0

>  <SCORE.RESTR.norm>
0

>  <SCORE.SYSTEM>
-20.7283

>  <SCORE.SYSTEM.CONST>
0

>  <SCORE.SYSTEM.DIHEDRAL>
4.71484

>  <SCORE.SYSTEM.POLAR>
-3.10542

>  <SCORE.SYSTEM.SOLV>
0.18306

>  <SCORE.SYSTEM.VDW>
-5.10012

>  <SCORE.SYSTEM.norm>
-2.30315

>  <SCORE.heavy>
9

>  <SCORE.norm>
-5.6844

$$$$
P32804231
 OpenBabel12072022113D
libRbt.so/2013.1/901 2013/11/27
 10 11  0  0  0  0  0  0  0  0999 V2000
  -28.6562   17.0919  -15.4650 C   0  0  0  0  0  0  0  0  0  0  0  0
  -29.2099   16.8299  -16.8543 C   0  0  2  0  0  0  0  0  0  0  0  0
  -29.8579   18.0707  -17.5312 C   0  0  2  0  0  0  0  0  0  0  0  0
  -31.1485   18.4759  -16.8651 C   0  0  0  0  0  0  0  0  0  0  0  0
  -31.6247   17.7345  -15.8478 C   0  0  0  0  0  0  0  0  0  0  0  0
  -30.8548   16.5236  -15.3916 C   0  0  2  0  0  0  0  0  0  0  0  0
  -29.7849   17.0163  -14.5776 O   0  0  0  0  0  0  0  0  0  0  0  0
  -30.2718   15.8986  -16.5513 O   0  0  0  0  0  0  0  0  0  0  0  0
  -30.1922   17.7447  -18.8798 O   0  0  0  0  0  0  0  0  0  0  0  0
  -29.3871   17.3476  -19.2629 H   0  0  0  0  0  0  0  0  0  0  0  0
  1  7  1  0  0  0  0
  2  1  1  1  0  0  0
  2  3  1  0  0  0  0
  2  8  1  0  0  0  0
  3  4  1  0  0  0  0
  3  9  1  6  0  0  0
  4  5  2  0  0  0  0
  6  5  1  6  0  0  0
  6  7  1  0  0  0  0
  6  8  1  0  0  0  0
  9 10  1  0  0  0  0
M  END
>  <CHROM.0>
-62.51846942,60.22742500,-66.66506246,-43.30624854,-176.09965791,-60.47411359
-66.44497468,-62.67575766,-169.18115819

>  <CHROM.1>
-49.90608986,-30.15306925,17.23798456,-16.47093624,-1.46205118,0.42844660
-1.29402791

>  <Name>
P32804231

>  <RI>
0

>  <Rbt.Current_Directory>
/home/fstefaniak/projects/zuza/docking/adenine/4TZX

>  <Rbt.Executable>
rbdock ($Id: //depot/dev/client3/rdock/2013.1/src/exe/rbdock.cxx#4 $)

>  <Rbt.Library>
libRbt.so (2013.1, Build901 2013/11/27)

>  <Rbt.Parameter_File>
/home/fstefaniak/progs/rDock//data/scripts/dock_solv.prm

>  <Rbt.Receptor>
4tzx.prm

>  <SCORE>
-40.6768

>  <SCORE.INTER>
-20.2928

>  <SCORE.INTER.CONST>
1

>  <SCORE.INTER.POLAR>
-2.04863

>  <SCORE.INTER.ROT>
0

>  <SCORE.INTER.SOLV>
9.66654

>  <SCORE.INTER.VDW>
-13.5219

>  <SCORE.INTER.norm>
-2.25475

>  <SCORE.INTRA>
0.115249

>  <SCORE.INTRA.DIHEDRAL>
0.358626

>  <SCORE.INTRA.DIHEDRAL.0>
0.136428

>  <SCORE.INTRA.POLAR>
0

>  <SCORE.INTRA.POLAR.0>
0

>  <SCORE.INTRA.REPUL>
0

>  <SCORE.INTRA.REPUL.0>
0

>  <SCORE.INTRA.SOLV>
0.0341917

>  <SCORE.INTRA.SOLV.lig_0>
-9.36961

>  <SCORE.INTRA.VDW>
-0.0811603

>  <SCORE.INTRA.VDW.0>
0.214767

>  <SCORE.INTRA.norm>
0.0128054

>  <SCORE.RESTR>
0

>  <SCORE.RESTR.CAVITY>
0

>  <SCORE.RESTR.norm>
0

>  <SCORE.SYSTEM>
-20.4993

>  <SCORE.SYSTEM.CONST>
0

>  <SCORE.SYSTEM.DIHEDRAL>
4.41453

>  <SCORE.SYSTEM.POLAR>
-3.0277

>  <SCORE.SYSTEM.SOLV>
0.0536711

>  <SCORE.SYSTEM.VDW>
-5.06326

>  <SCORE.SYSTEM.norm>
-2.2777

>  <SCORE.heavy>
9

>  <SCORE.norm>
-4.51965

$$$$
P32804231
 OpenBabel12072022113D
libRbt.so/2013.1/901 2013/11/27
 10 11  0  0  0  0  0  0  0  0999 V2000
  -28.6644   17.0916  -15.4661 C   0  0  0  0  0  0  0  0  0  0  0  0
  -29.2139   16.8389  -16.8588 C   0  0  2  0  0  0  0  0  0  0  0  0
  -29.8616   18.0838  -17.5286 C   0  0  2  0  0  0  0  0  0  0  0  0
  -31.1546   18.4826  -16.8631 C   0  0  0  0  0  0  0  0  0  0  0  0
  -31.6327   17.7333  -15.8525 C   0  0  0  0  0  0  0  0  0  0  0  0
  -30.8624   16.5201  -15.4028 C   0  0  2  0  0  0  0  0  0  0  0  0
  -29.7953   17.0082  -14.5824 O   0  0  0  0  0  0  0  0  0  0  0  0
  -30.2754   15.9042  -16.5654 O   0  0  0  0  0  0  0  0  0  0  0  0
  -30.1918   17.7671  -18.8804 O   0  0  0  0  0  0  0  0  0  0  0  0
  -29.3912   17.3565  -19.2586 H   0  0  0  0  0  0  0  0  0  0  0  0
  1  7  1  0  0  0  0
  2  1  1  1  0  0  0
  2  3  1  0  0  0  0
  2  8  1  0  0  0  0
  3  4  1  0  0  0  0
  3  9  1  6  0  0  0
  4  5  2  0  0  0  0
  6  5  1  6  0  0  0
  6  7  1  0  0  0  0
  6  8  1  0  0  0  0
  9 10  1  0  0  0  0
M  END
>  <CHROM.0>
-61.52100574,57.37380342,-63.74712243,-42.91696224,-173.89863672,-61.31695595
-66.41856420,-57.93161466,-168.69508535

>  <CHROM.1>
-48.74478135,-30.15868375,17.24295060,-16.47506886,-1.46434048,0.42683082
-1.28609087

>  <Name>
P32804231

>  <RI>
0

>  <Rbt.Current_Directory>
/home/fstefaniak/projects/zuza/docking/adenine/4TZX

>  <Rbt.Executable>
rbdock ($Id: //depot/dev/client3/rdock/2013.1/src/exe/rbdock.cxx#4 $)

>  <Rbt.Library>
libRbt.so (2013.1, Build901 2013/11/27)

>  <Rbt.Parameter_File>
/home/fstefaniak/progs/rDock//data/scripts/dock_solv.prm

>  <Rbt.Receptor>
4tzx.prm

>  <SCORE>
-40.6114

>  <SCORE.INTER>
-20.3493

>  <SCORE.INTER.CONST>
1

>  <SCORE.INTER.POLAR>
-2.07138

>  <SCORE.INTER.ROT>
0

>  <SCORE.INTER.SOLV>
9.66683

>  <SCORE.INTER.VDW>
-13.4838

>  <SCORE.INTER.norm>
-2.26103

>  <SCORE.INTRA>
0.192879

>  <SCORE.INTRA.DIHEDRAL>
0.474541

>  <SCORE.INTRA.DIHEDRAL.0>
0.136428

>  <SCORE.INTRA.POLAR>
0

>  <SCORE.INTRA.POLAR.0>
0

>  <SCORE.INTRA.REPUL>
0

>  <SCORE.INTRA.REPUL.0>
0

>  <SCORE.INTRA.SOLV>
0.0340265

>  <SCORE.INTRA.SOLV.lig_0>
-9.36961

>  <SCORE.INTRA.VDW>
-0.0614053

>  <SCORE.INTRA.VDW.0>
0.214767

>  <SCORE.INTRA.norm>
0.021431

>  <SCORE.RESTR>
0

>  <SCORE.RESTR.CAVITY>
0

>  <SCORE.RESTR.norm>
0

>  <SCORE.SYSTEM>
-20.455

>  <SCORE.SYSTEM.CONST>
0

>  <SCORE.SYSTEM.DIHEDRAL>
4.48442

>  <SCORE.SYSTEM.POLAR>
-3.05139

>  <SCORE.SYSTEM.SOLV>
0.0770359

>  <SCORE.SYSTEM.VDW>
-4.98586

>  <SCORE.SYSTEM.norm>
-2.27278

>  <SCORE.heavy>
9

>  <SCORE.norm>
-4.51238

$$$$
P32804231
 OpenBabel12072022113D
libRbt.so/2013.1/901 2013/11/27
 10 11  0  0  0  0  0  0  0  0999 V2000
  -28.6507   17.1182  -15.4580 C   0  0  0  0  0  0  0  0  0  0  0  0
  -29.1858   16.8682  -16.8568 C   0  0  2  0  0  0  0  0  0  0  0  0
  -29.8527   18.1068  -17.5194 C   0  0  2  0  0  0  0  0  0  0  0  0
  -31.1576   18.4745  -16.8593 C   0  0  0  0  0  0  0  0  0  0  0  0
  -31.6281   17.7067  -15.8591 C   0  0  0  0  0  0  0  0  0  0  0  0
  -30.8378   16.5042  -15.4155 C   0  0  2  0  0  0  0  0  0  0  0  0
  -29.7859   17.0048  -14.5830 O   0  0  0  0  0  0  0  0  0  0  0  0
  -30.2312   15.9106  -16.5796 O   0  0  0  0  0  0  0  0  0  0  0  0
  -30.1676   17.7967  -18.8764 O   0  0  0  0  0  0  0  0  0  0  0  0
  -29.3603   17.3947  -19.2497 H   0  0  0  0  0  0  0  0  0  0  0  0
  1  7  1  0  0  0  0
  2  1  1  1  0  0  0
  2  3  1  0  0  0  0
  2  8  1  0  0  0  0
  3  4  1  0  0  0  0
  3  9  1  6  0  0  0
  4  5  2  0  0  0  0
  6  5  1  6  0  0  0
  6  7  1  0  0  0  0
  6  8  1  0  0  0  0
  9 10  1  0  0  0  0
M  END
>  <CHROM.0>
-61.46829278,53.11495702,-66.95814068,-44.16098565,-58.56701250,-61.46515241
-70.09396117,-60.59089267,-169.63170403

>  <CHROM.1>
-48.04595324,-30.14081080,17.25039466,-16.47589369,-1.46544723,0.40674259
-1.27631617

>  <Name>
P32804231

>  <RI>
0

>  <Rbt.Current_Directory>
/home/fstefaniak/projects/zuza/docking/adenine/4TZX

>  <Rbt.Executable>
rbdock ($Id: //depot/dev/client3/rdock/2013.1/src/exe/rbdock.cxx#4 $)

>  <Rbt.Library>
libRbt.so (2013.1, Build901 2013/11/27)

>  <Rbt.Parameter_File>
/home/fstefaniak/progs/rDock//data/scripts/dock_solv.prm

>  <Rbt.Receptor>
4tzx.prm

>  <SCORE>
-40.5685

>  <SCORE.INTER>
-20.4815

>  <SCORE.INTER.CONST>
1

>  <SCORE.INTER.POLAR>
-2.09053

>  <SCORE.INTER.ROT>
0

>  <SCORE.INTER.SOLV>
9.65758

>  <SCORE.INTER.VDW>
-13.5051

>  <SCORE.INTER.norm>
-2.27573

>  <SCORE.INTRA>
0.242663

>  <SCORE.INTRA.DIHEDRAL>
0.549648

>  <SCORE.INTRA.DIHEDRAL.0>
0.136428

>  <SCORE.INTRA.POLAR>
0

>  <SCORE.INTRA.POLAR.0>
0

>  <SCORE.INTRA.REPUL>
0

>  <SCORE.INTRA.REPUL.0>
0

>  <SCORE.INTRA.SOLV>
0.0339267

>  <SCORE.INTRA.SOLV.lig_0>
-9.36961

>  <SCORE.INTRA.VDW>
-0.049124

>  <SCORE.INTRA.VDW.0>
0.214767

>  <SCORE.INTRA.norm>
0.0269626

>  <SCORE.RESTR>
0

>  <SCORE.RESTR.CAVITY>
0

>  <SCORE.RESTR.norm>
0

>  <SCORE.SYSTEM>
-20.3297

>  <SCORE.SYSTEM.CONST>
0

>  <SCORE.SYSTEM.DIHEDRAL>
4.66538

>  <SCORE.SYSTEM.POLAR>
-3.01924

>  <SCORE.SYSTEM.SOLV>
0.258932

>  <SCORE.SYSTEM.VDW>
-5.13043

>  <SCORE.SYSTEM.norm>
-2.25885

>  <SCORE.heavy>
9

>  <SCORE.norm>
-4.50762

$$$$
P32822350
 OpenBabel12072022113D
libRbt.so/2013.1/901 2013/11/27
 15 15  0  0  0  0  0  0  0  0999 V2000
  -27.6919   12.7084  -15.7916 C   0  0  0  0  0  0  0  0  0  0  0  0
  -27.9328   14.0799  -16.3706 C   0  0  0  0  0  0  0  0  0  0  0  0
  -27.1726   14.5537  -17.2068 O   0  0  0  0  0  0  0  0  0  0  0  0
  -29.0767   14.6636  -15.8563 N   0  0  0  0  0  0  0  0  0  0  0  0
  -29.6073   15.9329  -16.1655 C   0  0  0  0  0  0  0  0  0  0  0  0
  -29.2601   16.6699  -17.2948 C   0  0  0  0  0  0  0  0  0  0  0  0
  -29.8364   17.9232  -17.5248 C   0  0  0  0  0  0  0  0  0  0  0  0
  -30.7641   18.4537  -16.6240 C   0  0  0  0  0  0  0  0  0  0  0  0
  -31.1204   17.7342  -15.4806 C   0  0  0  0  0  0  0  0  0  0  0  0
  -30.5382   16.4744  -15.2695 C   0  0  0  0  0  0  0  0  0  0  0  0
  -32.0003   18.0838  -14.4917 O   0  0  0  0  0  0  0  0  0  0  0  0
  -31.4839   18.3207  -13.1901 C   0  0  0  0  0  0  0  0  0  0  0  0
  -31.3076   19.6766  -16.9008 O   0  0  0  0  0  0  0  0  0  0  0  0
  -29.5997   14.1198  -15.1809 H   0  0  0  0  0  0  0  0  0  0  0  0
  -30.5932   20.3289  -16.9876 H   0  0  0  0  0  0  0  0  0  0  0  0
  1  2  1  0  0  0  0
  2  3  2  0  0  0  0
  2  4  1  0  0  0  0
  4  5  1  0  0  0  0
  4 14  1  0  0  0  0
  5  6  2  0  0  0  0
  5 10  1  0  0  0  0
  6  7  1  0  0  0  0
  7  8  2  0  0  0  0
  8  9  1  0  0  0  0
  8 13  1  0  0  0  0
  9 10  2  0  0  0  0
  9 11  1  0  0  0  0
 11 12  1  0  0  0  0
 13 15  1  0  0  0  0
M  END
>  <CHROM.0>
-63.22675180,56.12359407,-66.08046189,-43.43318229,-55.99019388,-60.88244796
-70.62741186,-60.62937960,-168.03942883

>  <CHROM.1>
17.59307559,-57.66273057,-113.75945886,-29.83934764,16.57697962,-15.98488270
0.40061929,-0.87643915,2.28148266

>  <Name>
P32822350

>  <RI>
0

>  <Rbt.Current_Directory>
/home/fstefaniak/projects/zuza/docking/adenine/4TZX

>  <Rbt.Executable>
rbdock ($Id: //depot/dev/client3/rdock/2013.1/src/exe/rbdock.cxx#4 $)

>  <Rbt.Library>
libRbt.so (2013.1, Build901 2013/11/27)

>  <Rbt.Parameter_File>
/home/fstefaniak/progs/rDock//data/scripts/dock_solv.prm

>  <Rbt.Receptor>
4tzx.prm

>  <SCORE>
-47.3624

>  <SCORE.INTER>
-29.3136

>  <SCORE.INTER.CONST>
1

>  <SCORE.INTER.POLAR>
-3.66078

>  <SCORE.INTER.ROT>
2

>  <SCORE.INTER.SOLV>
13.9435

>  <SCORE.INTER.VDW>
-16.9209

>  <SCORE.INTER.norm>
-2.25489

>  <SCORE.INTRA>
2.24215

>  <SCORE.INTRA.DIHEDRAL>
8.55897

>  <SCORE.INTRA.DIHEDRAL.0>
0.0807983

>  <SCORE.INTRA.POLAR>
0

>  <SCORE.INTRA.POLAR.0>
0

>  <SCORE.INTRA.REPUL>
0

>  <SCORE.INTRA.REPUL.0>
0

>  <SCORE.INTRA.SOLV>
-0.307016

>  <SCORE.INTRA.SOLV.lig_0>
-15.0872

>  <SCORE.INTRA.VDW>
-1.88382

>  <SCORE.INTRA.VDW.0>
2.57206

>  <SCORE.INTRA.norm>
0.172473

>  <SCORE.RESTR>
0

>  <SCORE.RESTR.CAVITY>
0

>  <SCORE.RESTR.norm>
0

>  <SCORE.SYSTEM>
-20.291

>  <SCORE.SYSTEM.CONST>
0

>  <SCORE.SYSTEM.DIHEDRAL>
4.85491

>  <SCORE.SYSTEM.POLAR>
-3.04103

>  <SCORE.SYSTEM.SOLV>
0.250477

>  <SCORE.SYSTEM.VDW>
-5.09237

>  <SCORE.SYSTEM.norm>
-1.56085

>  <SCORE.heavy>
13

>  <SCORE.norm>
-3.64326

$$$$
P32822350
 OpenBabel12072022113D
libRbt.so/2013.1/901 2013/11/27
 15 15  0  0  0  0  0  0  0  0999 V2000
  -27.7395   12.6765  -15.8015 C   0  0  0  0  0  0  0  0  0  0  0  0
  -27.9674   14.0497  -16.3818 C   0  0  0  0  0  0  0  0  0  0  0  0
  -27.2053   14.5134  -17.2221 O   0  0  0  0  0  0  0  0  0  0  0  0
  -29.1023   14.6473  -15.8636 N   0  0  0  0  0  0  0  0  0  0  0  0
  -29.6197   15.9221  -16.1727 C   0  0  0  0  0  0  0  0  0  0  0  0
  -29.2424   16.6685  -17.2860 C   0  0  0  0  0  0  0  0  0  0  0  0
  -29.8074   17.9267  -17.5171 C   0  0  0  0  0  0  0  0  0  0  0  0
  -30.7540   18.4527  -16.6336 C   0  0  0  0  0  0  0  0  0  0  0  0
  -31.1407   17.7236  -15.5062 C   0  0  0  0  0  0  0  0  0  0  0  0
  -30.5694   16.4590  -15.2938 C   0  0  0  0  0  0  0  0  0  0  0  0
  -32.0424   18.0676  -14.5351 O   0  0  0  0  0  0  0  0  0  0  0  0
  -31.5587   18.2723  -13.2156 C   0  0  0  0  0  0  0  0  0  0  0  0
  -31.2853   19.6808  -16.9110 O   0  0  0  0  0  0  0  0  0  0  0  0
  -29.6286   14.1106  -15.1851 H   0  0  0  0  0  0  0  0  0  0  0  0
  -30.5636   20.3225  -17.0145 H   0  0  0  0  0  0  0  0  0  0  0  0
  1  2  1  0  0  0  0
  2  3  2  0  0  0  0
  2  4  1  0  0  0  0
  4  5  1  0  0  0  0
  4 14  1  0  0  0  0
  5  6  2  0  0  0  0
  5 10  1  0  0  0  0
  6  7  1  0  0  0  0
  7  8  2  0  0  0  0
  8  9  1  0  0  0  0
  8 13  1  0  0  0  0
  9 10  2  0  0  0  0
  9 11  1  0  0  0  0
 11 12  1  0  0  0  0
 13 15  1  0  0  0  0
M  END
>  <CHROM.0>
-61.12712985,51.27641149,-65.15449926,-43.22996295,-58.68698933,-66.46442974
-66.10443055,-58.05580242,-168.44224186

>  <CHROM.1>
15.80482526,-55.09735628,-114.55692946,-29.85879194,16.55991846,-15.99874801
0.43107604,-0.86886584,2.31729723

>  <Name>
P32822350

>  <RI>
0

>  <Rbt.Current_Directory>
/home/fstefaniak/projects/zuza/docking/adenine/4TZX

>  <Rbt.Executable>
rbdock ($Id: //depot/dev/client3/rdock/2013.1/src/exe/rbdock.cxx#4 $)

>  <Rbt.Library>
libRbt.so (2013.1, Build901 2013/11/27)

>  <Rbt.Parameter_File>
/home/fstefaniak/progs/rDock//data/scripts/dock_solv.prm

>  <Rbt.Receptor>
4tzx.prm

>  <SCORE>
-47.2232

>  <SCORE.INTER>
-28.9441

>  <SCORE.INTER.CONST>
1

>  <SCORE.INTER.POLAR>
-3.603

>  <SCORE.INTER.ROT>
2

>  <SCORE.INTER.SOLV>
14.0072

>  <SCORE.INTER.VDW>
-16.8885

>  <SCORE.INTER.norm>
-2.22647

>  <SCORE.INTRA>
2.09866

>  <SCORE.INTRA.DIHEDRAL>
8.08887

>  <SCORE.INTRA.DIHEDRAL.0>
0.0807983

>  <SCORE.INTRA.POLAR>
0

>  <SCORE.INTRA.POLAR.0>
0

>  <SCORE.INTRA.REPUL>
0

>  <SCORE.INTRA.REPUL.0>
0

>  <SCORE.INTRA.SOLV>
-0.308973

>  <SCORE.INTRA.SOLV.lig_0>
-15.0872

>  <SCORE.INTRA.VDW>
-1.79129

>  <SCORE.INTRA.VDW.0>
2.57206

>  <SCORE.INTRA.norm>
0.161435

>  <SCORE.RESTR>
0

>  <SCORE.RESTR.CAVITY>
0

>  <SCORE.RESTR.norm>
0

>  <SCORE.SYSTEM>
-20.3777

>  <SCORE.SYSTEM.CONST>
0

>  <SCORE.SYSTEM.DIHEDRAL>
4.84602

>  <SCORE.SYSTEM.POLAR>
-3.0785

>  <SCORE.SYSTEM.SOLV>
0.271282

>  <SCORE.SYSTEM.VDW>
-5.02921

>  <SCORE.SYSTEM.norm>
-1.56751

>  <SCORE.heavy>
13

>  <SCORE.norm>
-3.63255

$$$$
P32822350
 OpenBabel12072022113D
libRbt.so/2013.1/901 2013/11/27
 15 15  0  0  0  0  0  0  0  0999 V2000
  -27.7293   12.6853  -15.7964 C   0  0  0  0  0  0  0  0  0  0  0  0
  -27.9633   14.0568  -16.3782 C   0  0  0  0  0  0  0  0  0  0  0  0
  -27.2007   14.5248  -17.2156 O   0  0  0  0  0  0  0  0  0  0  0  0
  -29.1039   14.6476  -15.8650 N   0  0  0  0  0  0  0  0  0  0  0  0
  -29.6279   15.9190  -16.1768 C   0  0  0  0  0  0  0  0  0  0  0  0
  -29.2838   16.6479  -17.3122 C   0  0  0  0  0  0  0  0  0  0  0  0
  -29.8530   17.9040  -17.5444 C   0  0  0  0  0  0  0  0  0  0  0  0
  -30.7706   18.4455  -16.6397 C   0  0  0  0  0  0  0  0  0  0  0  0
  -31.1235   17.7342  -15.4902 C   0  0  0  0  0  0  0  0  0  0  0  0
  -30.5486   16.4714  -15.2769 C   0  0  0  0  0  0  0  0  0  0  0  0
  -31.9938   18.0949  -14.4968 O   0  0  0  0  0  0  0  0  0  0  0  0
  -31.4669   18.3316  -13.1993 C   0  0  0  0  0  0  0  0  0  0  0  0
  -31.3076   19.6708  -16.9188 O   0  0  0  0  0  0  0  0  0  0  0  0
  -29.6297   14.1080  -15.1883 H   0  0  0  0  0  0  0  0  0  0  0  0
  -30.5911   20.3230  -16.9868 H   0  0  0  0  0  0  0  0  0  0  0  0
  1  2  1  0  0  0  0
  2  3  2  0  0  0  0
  2  4  1  0  0  0  0
  4  5  1  0  0  0  0
  4 14  1  0  0  0  0
  5  6  2  0  0  0  0
  5 10  1  0  0  0  0
  6  7  1  0  0  0  0
  7  8  2  0  0  0  0
  8  9  1  0  0  0  0
  8 13  1  0  0  0  0
  9 10  2  0  0  0  0
  9 11  1  0  0  0  0
 11 12  1  0  0  0  0
 13 15  1  0  0  0  0
M  END
>  <CHROM.0>
-60.98598653,53.41509888,-45.79297006,-44.42210921,178.57411413,-59.61644645
-62.53879330,-60.67886286,-168.83031986

>  <CHROM.1>
18.03737724,-59.39671063,-113.90563621,-29.85288346,16.56638533,-15.99568160
0.39981323,-0.88493591,2.27533782

>  <Name>
P32822350

>  <RI>
0

>  <Rbt.Current_Directory>
/home/fstefaniak/projects/zuza/docking/adenine/4TZX

>  <Rbt.Executable>
rbdock ($Id: //depot/dev/client3/rdock/2013.1/src/exe/rbdock.cxx#4 $)

>  <Rbt.Library>
libRbt.so (2013.1, Build901 2013/11/27)

>  <Rbt.Parameter_File>
/home/fstefaniak/progs/rDock//data/scripts/dock_solv.prm

>  <Rbt.Receptor>
4tzx.prm

>  <SCORE>
-47.0789

>  <SCORE.INTER>
-29.3893

>  <SCORE.INTER.CONST>
1

>  <SCORE.INTER.POLAR>
-3.64695

>  <SCORE.INTER.ROT>
2

>  <SCORE.INTER.SOLV>
13.9623

>  <SCORE.INTER.VDW>
-17.0238

>  <SCORE.INTER.norm>
-2.26071

>  <SCORE.INTRA>
2.32353

>  <SCORE.INTRA.DIHEDRAL>
8.73811

>  <SCORE.INTRA.DIHEDRAL.0>
0.0807983

>  <SCORE.INTRA.POLAR>
0

>  <SCORE.INTRA.POLAR.0>
0

>  <SCORE.INTRA.REPUL>
0

>  <SCORE.INTRA.REPUL.0>
0

>  <SCORE.INTRA.SOLV>
-0.307193

>  <SCORE.INTRA.SOLV.lig_0>
-15.0872

>  <SCORE.INTRA.VDW>
-1.89193

>  <SCORE.INTRA.VDW.0>
2.57206

>  <SCORE.INTRA.norm>
0.178733

>  <SCORE.RESTR>
0

>  <SCORE.RESTR.CAVITY>
0

>  <SCORE.RESTR.norm>
0

>  <SCORE.SYSTEM>
-20.0131

>  <SCORE.SYSTEM.CONST>
0

>  <SCORE.SYSTEM.DIHEDRAL>
4.90799

>  <SCORE.SYSTEM.POLAR>
-3.14953

>  <SCORE.SYSTEM.SOLV>
0.122985

>  <SCORE.SYSTEM.VDW>
-4.52065

>  <SCORE.SYSTEM.norm>
-1.53947

>  <SCORE.heavy>
13

>  <SCORE.norm>
-3.62145

$$$$
P32833212
 OpenBabel12072022113D
libRbt.so/2013.1/901 2013/11/27
 16 17  0  0  0  0  0  0  0  0999 V2000
  -24.5136   12.8913  -14.5567 C   0  0  0  0  0  0  0  0  0  0  0  0
  -25.4999   12.7746  -15.7094 C   0  0  0  0  0  0  0  0  0  0  0  0
  -25.1211   13.6762  -16.7506 O   0  0  0  0  0  0  0  0  0  0  0  0
  -26.3007   14.3847  -17.1313 C   0  0  2  0  0  0  0  0  0  0  0  0
  -26.2811   15.8710  -16.7706 C   0  0  1  0  0  0  0  0  0  0  0  0
  -27.2548   16.0799  -15.7168 O   0  0  0  0  0  0  0  0  0  0  0  0
  -28.2075   15.0199  -15.8170 C   0  0  2  0  0  0  0  0  0  0  0  0
  -27.4312   13.8072  -16.3219 C   0  0  2  0  0  0  0  0  0  0  0  0
  -26.8033   13.1109  -15.2385 O   0  0  0  0  0  0  0  0  0  0  0  0
  -29.2592   15.4423  -16.7267 N   0  0  0  0  0  0  0  0  0  0  0  0
  -24.9384   16.4284  -16.3142 C   0  0  0  0  0  0  0  0  0  0  0  0
  -25.1107   17.7753  -15.8632 O   0  0  0  0  0  0  0  0  0  0  0  0
  -25.5130   11.3546  -16.2711 C   0  0  0  0  0  0  0  0  0  0  0  0
  -28.7982   15.7672  -17.5765 H   0  0  0  0  0  0  0  0  0  0  0  0
  -29.7254   16.2584  -16.3337 H   0  0  0  0  0  0  0  0  0  0  0  0
  -25.5754   18.2321  -16.5912 H   0  0  0  0  0  0  0  0  0  0  0  0
  1  2  1  0  0  0  0
  2  3  1  0  0  0  0
  2  9  1  0  0  0  0
  2 13  1  0  0  0  0
  4  3  1  1  0  0  0
  4  8  1  0  0  0  0
  5  4  1  0  0  0  0
  5  6  1  0  0  0  0
  5 11  1  1  0  0  0
  6  7  1  0  0  0  0
  7 10  1  6  0  0  0
  7  8  1  0  0  0  0
  8  9  1  1  0  0  0
 10 14  1  0  0  0  0
 10 15  1  0  0  0  0
 11 12  1  0  0  0  0
 12 16  1  0  0  0  0
M  END
>  <CHROM.0>
-60.16650640,-61.77072788,-64.95906266,-42.69841845,58.75376835,-59.13663762
-66.52219636,-55.08126968,-169.45340647

>  <CHROM.1>
-173.15552649,51.36208219,-52.13140409,-26.32140759,14.55937876,-16.08280482
-1.27607489,-0.13799477,-0.07841831

>  <Name>
P32833212

>  <RI>
0

>  <Rbt.Current_Directory>
/home/fstefaniak/projects/zuza/docking/adenine/4TZX

>  <Rbt.Executable>
rbdock ($Id: //depot/dev/client3/rdock/2013.1/src/exe/rbdock.cxx#4 $)

>  <Rbt.Library>
libRbt.so (2013.1, Build901 2013/11/27)

>  <Rbt.Parameter_File>
/home/fstefaniak/progs/rDock//data/scripts/dock_solv.prm

>  <Rbt.Receptor>
4tzx.prm

>  <SCORE>
-44.3506

>  <SCORE.INTER>
-24.4567

>  <SCORE.INTER.CONST>
1

>  <SCORE.INTER.POLAR>
-2.81588

>  <SCORE.INTER.ROT>
2

>  <SCORE.INTER.SOLV>
10.7712

>  <SCORE.INTER.VDW>
-15.4419

>  <SCORE.INTER.norm>
-1.88129

>  <SCORE.INTRA>
0.305688

>  <SCORE.INTRA.DIHEDRAL>
-0.462434

>  <SCORE.INTRA.DIHEDRAL.0>
1.00794

>  <SCORE.INTRA.POLAR>
0.124289

>  <SCORE.INTRA.POLAR.0>
-0.124289

>  <SCORE.INTRA.REPUL>
0

>  <SCORE.INTRA.REPUL.0>
0

>  <SCORE.INTRA.SOLV>
0.141294

>  <SCORE.INTRA.SOLV.lig_0>
-13.9775

>  <SCORE.INTRA.VDW>
0.0436738

>  <SCORE.INTRA.VDW.0>
-0.258406

>  <SCORE.INTRA.norm>
0.0235145

>  <SCORE.RESTR>
0.0561986

>  <SCORE.RESTR.CAVITY>
0.0561986

>  <SCORE.RESTR.norm>
0.00432297

>  <SCORE.SYSTEM>
-20.2558

>  <SCORE.SYSTEM.CONST>
0

>  <SCORE.SYSTEM.DIHEDRAL>
4.39481

>  <SCORE.SYSTEM.POLAR>
-3.0544

>  <SCORE.SYSTEM.SOLV>
-0.0190707

>  <SCORE.SYSTEM.VDW>
-4.7811

>  <SCORE.SYSTEM.norm>
-1.55814

>  <SCORE.heavy>
13

>  <SCORE.norm>
-3.41159

$$$$
P32833212
 OpenBabel12072022113D
libRbt.so/2013.1/901 2013/11/27
 16 17  0  0  0  0  0  0  0  0999 V2000
  -29.6294   17.8630  -13.0213 C   0  0  0  0  0  0  0  0  0  0  0  0
  -30.8282   17.7588  -13.9525 C   0  0  0  0  0  0  0  0  0  0  0  0
  -30.8320   16.4749  -14.5786 O   0  0  0  0  0  0  0  0  0  0  0  0
  -31.0348   16.6977  -15.9741 C   0  0  2  0  0  0  0  0  0  0  0  0
  -29.8224   16.3611  -16.8437 C   0  0  1  0  0  0  0  0  0  0  0  0
  -29.2948   17.6078  -17.3630 O   0  0  0  0  0  0  0  0  0  0  0  0
  -30.3694   18.5493  -17.3509 C   0  0  2  0  0  0  0  0  0  0  0  0
  -31.2351   18.1795  -16.1500 C   0  0  2  0  0  0  0  0  0  0  0  0
  -30.7294   18.7745  -14.9487 O   0  0  0  0  0  0  0  0  0  0  0  0
  -31.0760   18.4444  -18.6165 N   0  0  0  0  0  0  0  0  0  0  0  0
  -28.6960   15.6030  -16.1520 C   0  0  0  0  0  0  0  0  0  0  0  0
  -27.7621   16.5366  -15.6010 O   0  0  0  0  0  0  0  0  0  0  0  0
  -32.1334   17.9310  -13.1787 C   0  0  0  0  0  0  0  0  0  0  0  0
  -31.6834   19.2611  -18.6813 H   0  0  0  0  0  0  0  0  0  0  0  0
  -31.6971   17.6377  -18.5801 H   0  0  0  0  0  0  0  0  0  0  0  0
  -27.3521   16.9747  -16.3721 H   0  0  0  0  0  0  0  0  0  0  0  0
  1  2  1  0  0  0  0
  2  3  1  0  0  0  0
  2  9  1  0  0  0  0
  2 13  1  0  0  0  0
  4  3  1  1  0  0  0
  4  8  1  0  0  0  0
  5  4  1  0  0  0  0
  5  6  1  0  0  0  0
  5 11  1  1  0  0  0
  6  7  1  0  0  0  0
  7 10  1  6  0  0  0
  7  8  1  0  0  0  0
  8  9  1  1  0  0  0
 10 14  1  0  0  0  0
 10 15  1  0  0  0  0
 11 12  1  0  0  0  0
 12 16  1  0  0  0  0
M  END
>  <CHROM.0>
-56.32885908,-177.15064535,-70.68392937,-43.16277555,-175.97032046,-69.52632586
-166.98054432,-58.54092322,-168.97309341

>  <CHROM.1>
-90.63237390,-166.65313290,-66.80166617,-30.23207446,17.45024256,-15.67609764
-1.88195150,0.61001284,-1.44496318

>  <Name>
P32833212

>  <RI>
0

>  <Rbt.Current_Directory>
/home/fstefaniak/projects/zuza/docking/adenine/4TZX

>  <Rbt.Executable>
rbdock ($Id: //depot/dev/client3/rdock/2013.1/src/exe/rbdock.cxx#4 $)

>  <Rbt.Library>
libRbt.so (2013.1, Build901 2013/11/27)

>  <Rbt.Parameter_File>
/home/fstefaniak/progs/rDock//data/scripts/dock_solv.prm

>  <Rbt.Receptor>
4tzx.prm

>  <SCORE>
-40.0193

>  <SCORE.INTER>
-21.5505

>  <SCORE.INTER.CONST>
1

>  <SCORE.INTER.POLAR>
-4.597

>  <SCORE.INTER.ROT>
2

>  <SCORE.INTER.SOLV>
13.1434

>  <SCORE.INTER.VDW>
-8.35813

>  <SCORE.INTER.norm>
-1.65773

>  <SCORE.INTRA>
2.00444

>  <SCORE.INTRA.DIHEDRAL>
2.3892

>  <SCORE.INTRA.DIHEDRAL.0>
1.00794

>  <SCORE.INTRA.POLAR>
0.124289

>  <SCORE.INTRA.POLAR.0>
-0.124289

>  <SCORE.INTRA.REPUL>
0

>  <SCORE.INTRA.REPUL.0>
0

>  <SCORE.INTRA.SOLV>
1.35233

>  <SCORE.INTRA.SOLV.lig_0>
-13.9775

>  <SCORE.INTRA.VDW>
-0.288911

>  <SCORE.INTRA.VDW.0>
-0.258406

>  <SCORE.INTRA.norm>
0.154187

>  <SCORE.RESTR>
0

>  <SCORE.RESTR.CAVITY>
0

>  <SCORE.RESTR.norm>
0

>  <SCORE.SYSTEM>
-20.4732

>  <SCORE.SYSTEM.CONST>
0

>  <SCORE.SYSTEM.DIHEDRAL>
5.77551

>  <SCORE.SYSTEM.POLAR>
-3.06364

>  <SCORE.SYSTEM.SOLV>
-0.0617489

>  <SCORE.SYSTEM.VDW>
-5.34126

>  <SCORE.SYSTEM.norm>
-1.57486

>  <SCORE.heavy>
13

>  <SCORE.norm>
-3.0784

$$$$
P32833212
 OpenBabel12072022113D
libRbt.so/2013.1/901 2013/11/27
 16 17  0  0  0  0  0  0  0  0999 V2000
  -29.6320   17.8687  -13.0258 C   0  0  0  0  0  0  0  0  0  0  0  0
  -30.8364   17.7625  -13.9496 C   0  0  0  0  0  0  0  0  0  0  0  0
  -30.8268   16.4889  -14.5965 O   0  0  0  0  0  0  0  0  0  0  0  0
  -31.0435   16.7314  -15.9867 C   0  0  2  0  0  0  0  0  0  0  0  0
  -29.8331   16.4264  -16.8707 C   0  0  1  0  0  0  0  0  0  0  0  0
  -29.3273   17.6887  -17.3734 O   0  0  0  0  0  0  0  0  0  0  0  0
  -30.4149   18.6144  -17.3380 C   0  0  2  0  0  0  0  0  0  0  0  0
  -31.2660   18.2129  -16.1368 C   0  0  2  0  0  0  0  0  0  0  0  0
  -30.7596   18.7955  -14.9298 O   0  0  0  0  0  0  0  0  0  0  0  0
  -31.1297   18.5200  -18.5998 N   0  0  0  0  0  0  0  0  0  0  0  0
  -28.6908   15.6733  -16.1998 C   0  0  0  0  0  0  0  0  0  0  0  0
  -29.0413   14.2920  -16.0724 O   0  0  0  0  0  0  0  0  0  0  0  0
  -32.1379   17.9034  -13.1633 C   0  0  0  0  0  0  0  0  0  0  0  0
  -31.7634   19.3182  -18.6378 H   0  0  0  0  0  0  0  0  0  0  0  0
  -31.7245   17.6932  -18.5793 H   0  0  0  0  0  0  0  0  0  0  0  0
  -29.5836   14.2387  -15.2614 H   0  0  0  0  0  0  0  0  0  0  0  0
  1  2  1  0  0  0  0
  2  3  1  0  0  0  0
  2  9  1  0  0  0  0
  2 13  1  0  0  0  0
  4  3  1  1  0  0  0
  4  8  1  0  0  0  0
  5  4  1  0  0  0  0
  5  6  1  0  0  0  0
  5 11  1  1  0  0  0
  6  7  1  0  0  0  0
  7 10  1  6  0  0  0
  7  8  1  0  0  0  0
  8  9  1  1  0  0  0
 10 14  1  0  0  0  0
 10 15  1  0  0  0  0
 11 12  1  0  0  0  0
 12 16  1  0  0  0  0
M  END
>  <CHROM.0>
-58.15878798,-176.43588227,-62.46176875,-43.75987482,61.20969809,-55.24118741
-63.96237131,-58.44391268,-169.06073425

>  <CHROM.1>
76.47919108,-167.81929176,-82.99367701,-30.36883050,17.27915689,-15.71279472
-2.09989091,1.01983352,-1.31301793

>  <Name>
P32833212

>  <RI>
0

>  <Rbt.Current_Directory>
/home/fstefaniak/projects/zuza/docking/adenine/4TZX

>  <Rbt.Executable>
rbdock ($Id: //depot/dev/client3/rdock/2013.1/src/exe/rbdock.cxx#4 $)

>  <Rbt.Library>
libRbt.so (2013.1, Build901 2013/11/27)

>  <Rbt.Parameter_File>
/home/fstefaniak/progs/rDock//data/scripts/dock_solv.prm

>  <Rbt.Receptor>
4tzx.prm

>  <SCORE>
-39.368

>  <SCORE.INTER>
-20.78

>  <SCORE.INTER.CONST>
1

>  <SCORE.INTER.POLAR>
-4.4952

>  <SCORE.INTER.ROT>
2

>  <SCORE.INTER.SOLV>
14.1799

>  <SCORE.INTER.VDW>
-8.52931

>  <SCORE.INTER.norm>
-1.59846

>  <SCORE.INTRA>
1.43847

>  <SCORE.INTRA.DIHEDRAL>
2.60302

>  <SCORE.INTRA.DIHEDRAL.0>
1.00794

>  <SCORE.INTRA.POLAR>
0.124289

>  <SCORE.INTRA.POLAR.0>
-0.124289

>  <SCORE.INTRA.REPUL>
0

>  <SCORE.INTRA.REPUL.0>
0

>  <SCORE.INTRA.SOLV>
0.192474

>  <SCORE.INTRA.SOLV.lig_0>
-13.9775

>  <SCORE.INTRA.VDW>
-0.381863

>  <SCORE.INTRA.VDW.0>
-0.258406

>  <SCORE.INTRA.norm>
0.110651

>  <SCORE.RESTR>
0

>  <SCORE.RESTR.CAVITY>
0

>  <SCORE.RESTR.norm>
0

>  <SCORE.SYSTEM>
-20.0265

>  <SCORE.SYSTEM.CONST>
0

>  <SCORE.SYSTEM.DIHEDRAL>
4.13867

>  <SCORE.SYSTEM.POLAR>
-3.06718

>  <SCORE.SYSTEM.SOLV>
-0.0330119

>  <SCORE.SYSTEM.VDW>
-4.49561

>  <SCORE.SYSTEM.norm>
-1.5405

>  <SCORE.heavy>
13

>  <SCORE.norm>
-3.02831

$$$$
P33491762
 OpenBabel12072022113D
libRbt.so/2013.1/901 2013/11/27
 17 17  0  0  0  0  0  0  0  0999 V2000
  -24.7957   10.2520  -12.5110 C   0  0  0  0  0  0  0  0  0  0  0  0
  -25.0084   10.2466  -14.0271 C   0  0  0  0  0  0  0  0  0  0  0  0
  -26.4960   10.2758  -14.3899 C   0  0  0  0  0  0  0  0  0  0  0  0
  -27.1366   11.6578  -14.2112 C   0  0  0  0  0  0  0  0  0  0  0  0
  -26.4018   12.7779  -14.8203 N   0  0  0  0  0  0  0  0  0  0  0  0
  -24.9785   12.7519  -14.4768 C   0  0  0  0  0  0  0  0  0  0  0  0
  -24.2836   11.4105  -14.7109 C   0  0  0  0  0  0  0  0  0  0  0  0
  -26.8006   13.1443  -16.2148 C   0  0  0  0  0  0  0  0  0  0  0  0
  -26.8791   11.9134  -17.1477 C   0  0  0  0  0  0  0  0  0  0  0  0
  -28.1262   13.9140  -16.3345 C   0  0  0  0  0  0  0  0  0  0  0  0
  -25.6585   14.0307  -16.8172 C   0  0  0  0  0  0  0  0  0  0  0  0
  -24.5321   13.6193  -17.0949 O   0  0  0  0  0  0  0  0  0  0  0  0
  -26.0225   15.3705  -16.9613 N   0  0  0  0  0  0  0  0  0  0  0  0
  -25.4356   16.3428  -16.1190 N   0  0  0  0  0  0  0  0  0  0  0  0
  -26.3397   15.6394  -17.8957 H   0  0  0  0  0  0  0  0  0  0  0  0
  -25.5802   17.2545  -16.5736 H   0  0  0  0  0  0  0  0  0  0  0  0
  -24.4211   16.2138  -16.1743 H   0  0  0  0  0  0  0  0  0  0  0  0
  1  2  1  0  0  0  0
  2  3  1  0  0  0  0
  2  7  1  0  0  0  0
  3  4  1  0  0  0  0
  4  5  1  0  0  0  0
  5  6  1  0  0  0  0
  5  8  1  0  0  0  0
  6  7  1  0  0  0  0
  8  9  1  0  0  0  0
  8 10  1  0  0  0  0
  8 11  1  0  0  0  0
 11 12  2  0  0  0  0
 11 13  1  0  0  0  0
 13 14  1  0  0  0  0
 13 15  1  0  0  0  0
 14 16  1  0  0  0  0
 14 17  1  0  0  0  0
M  END
>  <CHROM.0>
-61.66827659,-62.97276668,-63.53906566,-43.49969345,-64.99576203,-175.19506912
-66.00440376,-176.61454726,-168.65548177

>  <CHROM.1>
-48.65378457,68.63810431,109.69710031,161.52249295,-25.88487405,12.74185019
-15.43906090,-1.44554886,-0.36081567,-0.55996191

>  <Name>
P33491762

>  <RI>
0

>  <Rbt.Current_Directory>
/home/fstefaniak/projects/zuza/docking/adenine/4TZX

>  <Rbt.Executable>
rbdock ($Id: //depot/dev/client3/rdock/2013.1/src/exe/rbdock.cxx#4 $)

>  <Rbt.Library>
libRbt.so (2013.1, Build901 2013/11/27)

>  <Rbt.Parameter_File>
/home/fstefaniak/progs/rDock//data/scripts/dock_solv.prm

>  <Rbt.Receptor>
4tzx.prm

>  <SCORE>
-41.3149

>  <SCORE.INTER>
-25.9522

>  <SCORE.INTER.CONST>
1

>  <SCORE.INTER.POLAR>
-3.84513

>  <SCORE.INTER.ROT>
4

>  <SCORE.INTER.SOLV>
10.3959

>  <SCORE.INTER.VDW>
-14.2164

>  <SCORE.INTER.norm>
-1.85373

>  <SCORE.INTRA>
4.14946

>  <SCORE.INTRA.DIHEDRAL>
2.49824

>  <SCORE.INTRA.DIHEDRAL.0>
2.84196

>  <SCORE.INTRA.POLAR>
0.0983013

>  <SCORE.INTRA.POLAR.0>
-0.0983013

>  <SCORE.INTRA.REPUL>
0

>  <SCORE.INTRA.REPUL.0>
0

>  <SCORE.INTRA.SOLV>
0.103315

>  <SCORE.INTRA.SOLV.lig_0>
-13.5949

>  <SCORE.INTRA.VDW>
2.51446

>  <SCORE.INTRA.VDW.0>
2.75756

>  <SCORE.INTRA.norm>
0.29639

>  <SCORE.RESTR>
1.3796

>  <SCORE.RESTR.CAVITY>
1.3796

>  <SCORE.RESTR.norm>
0.0985432

>  <SCORE.SYSTEM>
-20.8917

>  <SCORE.SYSTEM.CONST>
0

>  <SCORE.SYSTEM.DIHEDRAL>
4.4619

>  <SCORE.SYSTEM.POLAR>
-3.03831

>  <SCORE.SYSTEM.SOLV>
-0.0730424

>  <SCORE.SYSTEM.VDW>
-5.26308

>  <SCORE.SYSTEM.norm>
-1.49227

>  <SCORE.heavy>
14

>  <SCORE.norm>
-2.95106

$$$$
P33491762
 OpenBabel12072022113D
libRbt.so/2013.1/901 2013/11/27
 17 17  0  0  0  0  0  0  0  0999 V2000
  -24.4675   10.4050  -14.4915 C   0  0  0  0  0  0  0  0  0  0  0  0
  -25.0019   10.9683  -15.8110 C   0  0  0  0  0  0  0  0  0  0  0  0
  -26.5317   11.0414  -15.8168 C   0  0  0  0  0  0  0  0  0  0  0  0
  -27.0862   12.2061  -14.9873 C   0  0  0  0  0  0  0  0  0  0  0  0
  -26.4739   13.5176  -15.2521 N   0  0  0  0  0  0  0  0  0  0  0  0
  -25.0110   13.4510  -15.2490 C   0  0  0  0  0  0  0  0  0  0  0  0
  -24.4144   12.3483  -16.1239 C   0  0  0  0  0  0  0  0  0  0  0  0
  -27.1550   14.3653  -16.2796 C   0  0  0  0  0  0  0  0  0  0  0  0
  -26.9659   13.8185  -17.7138 C   0  0  0  0  0  0  0  0  0  0  0  0
  -28.6595   14.5857  -16.0517 C   0  0  0  0  0  0  0  0  0  0  0  0
  -26.4466   15.7621  -16.2873 C   0  0  0  0  0  0  0  0  0  0  0  0
  -25.3331   15.9744  -16.7669 O   0  0  0  0  0  0  0  0  0  0  0  0
  -27.1830   16.7539  -15.6374 N   0  0  0  0  0  0  0  0  0  0  0  0
  -26.5219   17.6482  -14.7643 N   0  0  0  0  0  0  0  0  0  0  0  0
  -28.0304   17.0580  -16.1225 H   0  0  0  0  0  0  0  0  0  0  0  0
  -26.4995   18.5617  -15.2374 H   0  0  0  0  0  0  0  0  0  0  0  0
  -25.5356   17.3728  -14.7440 H   0  0  0  0  0  0  0  0  0  0  0  0
  1  2  1  0  0  0  0
  2  3  1  0  0  0  0
  2  7  1  0  0  0  0
  3  4  1  0  0  0  0
  4  5  1  0  0  0  0
  5  6  1  0  0  0  0
  5  8  1  0  0  0  0
  6  7  1  0  0  0  0
  8  9  1  0  0  0  0
  8 10  1  0  0  0  0
  8 11  1  0  0  0  0
 11 12  2  0  0  0  0
 11 13  1  0  0  0  0
 13 14  1  0  0  0  0
 13 15  1  0  0  0  0
 14 16  1  0  0  0  0
 14 17  1  0  0  0  0
M  END
>  <CHROM.0>
-56.72117203,-68.65555188,-41.67944781,-43.84426638,59.33177661,59.27437162
-64.97506017,-174.93232863,-168.22809556

>  <CHROM.1>
-71.42563905,73.93976333,136.35339963,108.44958093,-26.23190848,13.83022407
-15.79998060,-1.27831578,-0.24088990,-0.01572185

>  <Name>
P33491762

>  <RI>
0

>  <Rbt.Current_Directory>
/home/fstefaniak/projects/zuza/docking/adenine/4TZX

>  <Rbt.Executable>
rbdock ($Id: //depot/dev/client3/rdock/2013.1/src/exe/rbdock.cxx#4 $)

>  <Rbt.Library>
libRbt.so (2013.1, Build901 2013/11/27)

>  <Rbt.Parameter_File>
/home/fstefaniak/progs/rDock//data/scripts/dock_solv.prm

>  <Rbt.Receptor>
4tzx.prm

>  <SCORE>
-35.1852

>  <SCORE.INTER>
-20.2054

>  <SCORE.INTER.CONST>
1

>  <SCORE.INTER.POLAR>
-3.40212

>  <SCORE.INTER.ROT>
4

>  <SCORE.INTER.SOLV>
10.1573

>  <SCORE.INTER.VDW>
-11.7823

>  <SCORE.INTER.norm>
-1.44324

>  <SCORE.INTRA>
2.92255

>  <SCORE.INTRA.DIHEDRAL>
1.69393

>  <SCORE.INTRA.DIHEDRAL.0>
2.84196

>  <SCORE.INTRA.POLAR>
0.0983013

>  <SCORE.INTRA.POLAR.0>
-0.0983013

>  <SCORE.INTRA.REPUL>
0

>  <SCORE.INTRA.REPUL.0>
0

>  <SCORE.INTRA.SOLV>
-0.203922

>  <SCORE.INTRA.SOLV.lig_0>
-13.5949

>  <SCORE.INTRA.VDW>
1.84333

>  <SCORE.INTRA.VDW.0>
2.75756

>  <SCORE.INTRA.norm>
0.208754

>  <SCORE.RESTR>
0.726498

>  <SCORE.RESTR.CAVITY>
0.726498

>  <SCORE.RESTR.norm>
0.0518927

>  <SCORE.SYSTEM>
-18.6289

>  <SCORE.SYSTEM.CONST>
0

>  <SCORE.SYSTEM.DIHEDRAL>
5.9682

>  <SCORE.SYSTEM.POLAR>
-3.22661

>  <SCORE.SYSTEM.SOLV>
-0.266305

>  <SCORE.SYSTEM.VDW>
-3.56453

>  <SCORE.SYSTEM.norm>
-1.33064

>  <SCORE.heavy>
14

>  <SCORE.norm>
-2.51323

$$$$
P33491762
 OpenBabel12072022113D
libRbt.so/2013.1/901 2013/11/27
 17 17  0  0  0  0  0  0  0  0999 V2000
  -22.7994   11.2422  -14.2427 C   0  0  0  0  0  0  0  0  0  0  0  0
  -24.3245   11.2537  -14.1087 C   0  0  0  0  0  0  0  0  0  0  0  0
  -24.8670   12.6759  -13.9391 C   0  0  0  0  0  0  0  0  0  0  0  0
  -24.8825   13.4787  -15.2458 C   0  0  0  0  0  0  0  0  0  0  0  0
  -25.4880   12.7952  -16.3996 N   0  0  0  0  0  0  0  0  0  0  0  0
  -24.9728   11.4343  -16.5637 C   0  0  0  0  0  0  0  0  0  0  0  0
  -25.0088   10.5749  -15.2998 C   0  0  0  0  0  0  0  0  0  0  0  0
  -26.9463   13.0458  -16.6207 C   0  0  0  0  0  0  0  0  0  0  0  0
  -27.3774   12.7668  -18.0795 C   0  0  0  0  0  0  0  0  0  0  0  0
  -27.8913   12.2672  -15.6908 C   0  0  0  0  0  0  0  0  0  0  0  0
  -27.2009   14.5773  -16.4141 C   0  0  0  0  0  0  0  0  0  0  0  0
  -28.1926   15.0484  -15.8577 O   0  0  0  0  0  0  0  0  0  0  0  0
  -26.2082   15.3793  -16.9794 N   0  0  0  0  0  0  0  0  0  0  0  0
  -25.5163   16.3042  -16.1640 N   0  0  0  0  0  0  0  0  0  0  0  0
  -25.7427   14.9854  -17.8005 H   0  0  0  0  0  0  0  0  0  0  0  0
  -25.6512   17.2319  -16.5884 H   0  0  0  0  0  0  0  0  0  0  0  0
  -24.5157   16.1310  -16.2972 H   0  0  0  0  0  0  0  0  0  0  0  0
  1  2  1  0  0  0  0
  2  3  1  0  0  0  0
  2  7  1  0  0  0  0
  3  4  1  0  0  0  0
  4  5  1  0  0  0  0
  5  6  1  0  0  0  0
  5  8  1  0  0  0  0
  6  7  1  0  0  0  0
  8  9  1  0  0  0  0
  8 10  1  0  0  0  0
  8 11  1  0  0  0  0
 11 12  2  0  0  0  0
 11 13  1  0  0  0  0
 13 14  1  0  0  0  0
 13 15  1  0  0  0  0
 14 16  1  0  0  0  0
 14 17  1  0  0  0  0
M  END
>  <CHROM.0>
-59.42073217,-60.98743101,59.26266137,-44.85666508,-58.37861741,-176.06351461
-57.02608158,-173.89375947,-168.62312615

>  <CHROM.1>
158.12674699,-141.05710138,-123.60834977,-122.68529913,-25.83473716,13.10504227
-15.84266308,-0.79375885,-0.56232604,-0.02221304

>  <Name>
P33491762

>  <RI>
0

>  <Rbt.Current_Directory>
/home/fstefaniak/projects/zuza/docking/adenine/4TZX

>  <Rbt.Executable>
rbdock ($Id: //depot/dev/client3/rdock/2013.1/src/exe/rbdock.cxx#4 $)

>  <Rbt.Library>
libRbt.so (2013.1, Build901 2013/11/27)

>  <Rbt.Parameter_File>
/home/fstefaniak/progs/rDock//data/scripts/dock_solv.prm

>  <Rbt.Receptor>
4tzx.prm

>  <SCORE>
-33.1715

>  <SCORE.INTER>
-16.8968

>  <SCORE.INTER.CONST>
1

>  <SCORE.INTER.POLAR>
-2.49743

>  <SCORE.INTER.ROT>
4

>  <SCORE.INTER.SOLV>
9.64656

>  <SCORE.INTER.VDW>
-12.4219

>  <SCORE.INTER.norm>
-1.20691

>  <SCORE.INTRA>
-0.167084

>  <SCORE.INTRA.DIHEDRAL>
0.0368853

>  <SCORE.INTRA.DIHEDRAL.0>
2.84196

>  <SCORE.INTRA.POLAR>
0.0983013

>  <SCORE.INTRA.POLAR.0>
-0.0983013

>  <SCORE.INTRA.REPUL>
0

>  <SCORE.INTRA.REPUL.0>
0

>  <SCORE.INTRA.SOLV>
0.523332

>  <SCORE.INTRA.SOLV.lig_0>
-13.5949

>  <SCORE.INTRA.VDW>
-0.781417

>  <SCORE.INTRA.VDW.0>
2.75756

>  <SCORE.INTRA.norm>
-0.0119346

>  <SCORE.RESTR>
1.2715

>  <SCORE.RESTR.CAVITY>
1.2715

>  <SCORE.RESTR.norm>
0.0908214

>  <SCORE.SYSTEM>
-17.3791

>  <SCORE.SYSTEM.CONST>
0

>  <SCORE.SYSTEM.DIHEDRAL>
4.03572

>  <SCORE.SYSTEM.POLAR>
-2.49227

>  <SCORE.SYSTEM.SOLV>
-0.112633

>  <SCORE.SYSTEM.VDW>
-4.58623

>  <SCORE.SYSTEM.norm>
-1.24137

>  <SCORE.heavy>
14

>  <SCORE.norm>
-2.36939

$$$$
P38900066
 OpenBabel12072022113D
libRbt.so/2013.1/901 2013/11/27
 10 10  0  0  0  0  0  0  0  0999 V2000
  -31.1896   19.3386  -17.2391 C   0  0  0  0  0  0  0  0  0  0  0  0
  -31.2476   18.7834  -18.6581 C   0  0  0  0  0  0  0  0  0  0  0  0
  -29.9867   17.9960  -18.9839 C   0  0  0  0  0  0  0  0  0  0  0  0
  -29.6175   17.1323  -17.8609 N   0  3  0  0  0  0  0  0  0  0  0  0
  -28.9090   16.3804  -17.9816 H   0  0  0  0  0  0  0  0  0  0  0  0
  -30.0162   17.1885  -16.6389 C   0  0  0  0  0  0  0  0  0  0  0  0
  -31.0539   18.1936  -16.2402 C   0  0  0  0  0  0  0  0  0  0  0  0
  -29.4300   16.1814  -15.7108 C   0  0  0  0  0  0  0  0  0  0  0  0
  -28.5915   15.3871  -16.1947 O   0  0  0  0  0  0  0  0  0  0  0  0
  -29.8949   16.3141  -14.5403 O   0  5  0  0  0  0  0  0  0  0  0  0
  1  2  1  0  0  0  0
  1  7  1  0  0  0  0
  2  3  1  0  0  0  0
  3  4  1  0  0  0  0
  4  5  1  0  0  0  0
  4  6  2  0  0  0  0
  6  7  1  0  0  0  0
  6  8  1  0  0  0  0
  8  9  2  0  0  0  0
  8 10  1  0  0  0  0
M  CHG  2   4   1  10  -1
M  END
>  <CHROM.0>
-61.48061022,-59.75115091,-67.05105117,-42.47655271,-176.58971038,-61.09838172
-64.69198323,-58.63196860,-168.47669536

>  <CHROM.1>
1.02603450,-30.09010050,17.35716090,-16.88020374,2.18855931,0.86274989,-1.27783447

>  <Name>
P38900066

>  <RI>
0

>  <Rbt.Current_Directory>
/home/fstefaniak/projects/zuza/docking/adenine/4TZX

>  <Rbt.Executable>
rbdock ($Id: //depot/dev/client3/rdock/2013.1/src/exe/rbdock.cxx#4 $)

>  <Rbt.Library>
libRbt.so (2013.1, Build901 2013/11/27)

>  <Rbt.Parameter_File>
/home/fstefaniak/progs/rDock//data/scripts/dock_solv.prm

>  <Rbt.Receptor>
4tzx.prm

>  <SCORE>
-38.3121

>  <SCORE.INTER>
-16.9761

>  <SCORE.INTER.CONST>
1

>  <SCORE.INTER.POLAR>
-2.46327

>  <SCORE.INTER.ROT>
1

>  <SCORE.INTER.SOLV>
23.4262

>  <SCORE.INTER.VDW>
-15.1819

>  <SCORE.INTER.norm>
-1.88623

>  <SCORE.INTRA>
-0.0780845

>  <SCORE.INTRA.DIHEDRAL>
-0.00612395

>  <SCORE.INTRA.DIHEDRAL.0>
0.0122702

>  <SCORE.INTRA.POLAR>
0

>  <SCORE.INTRA.POLAR.0>
0

>  <SCORE.INTRA.REPUL>
0

>  <SCORE.INTRA.REPUL.0>
0

>  <SCORE.INTRA.SOLV>
-0.20185

>  <SCORE.INTRA.SOLV.lig_0>
-47.0325

>  <SCORE.INTRA.VDW>
0.0259023

>  <SCORE.INTRA.VDW.0>
0.280464

>  <SCORE.INTRA.norm>
-0.00867606

>  <SCORE.RESTR>
0

>  <SCORE.RESTR.CAVITY>
0

>  <SCORE.RESTR.norm>
0

>  <SCORE.SYSTEM>
-21.258

>  <SCORE.SYSTEM.CONST>
0

>  <SCORE.SYSTEM.DIHEDRAL>
4.48199

>  <SCORE.SYSTEM.POLAR>
-3.05013

>  <SCORE.SYSTEM.SOLV>
0.00568342

>  <SCORE.SYSTEM.VDW>
-5.50075

>  <SCORE.SYSTEM.norm>
-2.36199

>  <SCORE.heavy>
9

>  <SCORE.norm>
-4.2569

$$$$
P38900066
 OpenBabel12072022113D
libRbt.so/2013.1/901 2013/11/27
 10 10  0  0  0  0  0  0  0  0999 V2000
  -31.1925   19.3434  -17.2556 C   0  0  0  0  0  0  0  0  0  0  0  0
  -31.2737   18.7401  -18.6537 C   0  0  0  0  0  0  0  0  0  0  0  0
  -30.0107   17.9563  -18.9799 C   0  0  0  0  0  0  0  0  0  0  0  0
  -29.6076   17.1351  -17.8369 N   0  3  0  0  0  0  0  0  0  0  0  0
  -28.8929   16.3875  -17.9475 H   0  0  0  0  0  0  0  0  0  0  0  0
  -29.9811   17.2280  -16.6091 C   0  0  0  0  0  0  0  0  0  0  0  0
  -31.0222   18.2344  -16.2221 C   0  0  0  0  0  0  0  0  0  0  0  0
  -29.3636   16.2594  -15.6606 C   0  0  0  0  0  0  0  0  0  0  0  0
  -28.4477   15.5334  -16.1103 O   0  0  0  0  0  0  0  0  0  0  0  0
  -29.8886   16.3477  -14.5116 O   0  5  0  0  0  0  0  0  0  0  0  0
  1  2  1  0  0  0  0
  1  7  1  0  0  0  0
  2  3  1  0  0  0  0
  3  4  1  0  0  0  0
  4  5  1  0  0  0  0
  4  6  2  0  0  0  0
  6  7  1  0  0  0  0
  6  8  1  0  0  0  0
  8  9  2  0  0  0  0
  8 10  1  0  0  0  0
M  CHG  2   4   1  10  -1
M  END
>  <CHROM.0>
-61.12406151,-62.15226185,-64.46734328,-43.20975094,-57.26306324,-64.82292385
-68.32136830,-60.36817274,-168.62125073

>  <CHROM.1>
6.72992511,-30.06276222,17.38714388,-16.85439836,2.20210694,0.83109645,-1.30854000

>  <Name>
P38900066

>  <RI>
0

>  <Rbt.Current_Directory>
/home/fstefaniak/projects/zuza/docking/adenine/4TZX

>  <Rbt.Executable>
rbdock ($Id: //depot/dev/client3/rdock/2013.1/src/exe/rbdock.cxx#4 $)

>  <Rbt.Library>
libRbt.so (2013.1, Build901 2013/11/27)

>  <Rbt.Parameter_File>
/home/fstefaniak/progs/rDock//data/scripts/dock_solv.prm

>  <Rbt.Receptor>
4tzx.prm

>  <SCORE>
-38.2931

>  <SCORE.INTER>
-17.0525

>  <SCORE.INTER.CONST>
1

>  <SCORE.INTER.POLAR>
-2.4302

>  <SCORE.INTER.ROT>
1

>  <SCORE.INTER.SOLV>
23.0863

>  <SCORE.INTER.VDW>
-15.2298

>  <SCORE.INTER.norm>
-1.89472

>  <SCORE.INTRA>
-0.0453711

>  <SCORE.INTRA.DIHEDRAL>
0.0892277

>  <SCORE.INTRA.DIHEDRAL.0>
0.0122702

>  <SCORE.INTRA.POLAR>
0

>  <SCORE.INTRA.POLAR.0>
0

>  <SCORE.INTRA.REPUL>
0

>  <SCORE.INTRA.REPUL.0>
0

>  <SCORE.INTRA.SOLV>
-0.212475

>  <SCORE.INTRA.SOLV.lig_0>
-47.0325

>  <SCORE.INTRA.VDW>
0.0162524

>  <SCORE.INTRA.VDW.0>
0.280464

>  <SCORE.INTRA.norm>
-0.00504124

>  <SCORE.RESTR>
0

>  <SCORE.RESTR.CAVITY>
0

>  <SCORE.RESTR.norm>
0

>  <SCORE.SYSTEM>
-21.1953

>  <SCORE.SYSTEM.CONST>
0

>  <SCORE.SYSTEM.DIHEDRAL>
4.53117

>  <SCORE.SYSTEM.POLAR>
-3.04883

>  <SCORE.SYSTEM.SOLV>
0.174123

>  <SCORE.SYSTEM.VDW>
-5.53584

>  <SCORE.SYSTEM.norm>
-2.35503

>  <SCORE.heavy>
9

>  <SCORE.norm>
-4.25479

$$$$
P38900066
 OpenBabel12072022113D
libRbt.so/2013.1/901 2013/11/27
 10 10  0  0  0  0  0  0  0  0999 V2000
  -31.2687   19.2933  -17.2569 C   0  0  0  0  0  0  0  0  0  0  0  0
  -31.2982   18.7210  -18.6700 C   0  0  0  0  0  0  0  0  0  0  0  0
  -30.0068   17.9782  -18.9809 C   0  0  0  0  0  0  0  0  0  0  0  0
  -29.6111   17.1414  -17.8467 N   0  3  0  0  0  0  0  0  0  0  0  0
  -28.8741   16.4155  -17.9556 H   0  0  0  0  0  0  0  0  0  0  0  0
  -30.0181   17.1958  -16.6273 C   0  0  0  0  0  0  0  0  0  0  0  0
  -31.0952   18.1653  -16.2448 C   0  0  0  0  0  0  0  0  0  0  0  0
  -29.3993   16.2217  -15.6853 C   0  0  0  0  0  0  0  0  0  0  0  0
  -28.5092   15.4732  -16.1497 O   0  0  0  0  0  0  0  0  0  0  0  0
  -29.8959   16.3298  -14.5253 O   0  5  0  0  0  0  0  0  0  0  0  0
  1  2  1  0  0  0  0
  1  7  1  0  0  0  0
  2  3  1  0  0  0  0
  3  4  1  0  0  0  0
  4  5  1  0  0  0  0
  4  6  2  0  0  0  0
  6  7  1  0  0  0  0
  6  8  1  0  0  0  0
  8  9  2  0  0  0  0
  8 10  1  0  0  0  0
M  CHG  2   4   1  10  -1
M  END
>  <CHROM.0>
-61.46624662,-61.31352677,-63.81808705,-43.50361927,-57.87551533,-61.29129821
-68.26543168,-60.01851303,-169.16706719

>  <CHROM.1>
2.45733724,-30.09723815,17.35879062,-16.87082137,2.19187615,0.81841661,-1.28800733

>  <Name>
P38900066

>  <RI>
0

>  <Rbt.Current_Directory>
/home/fstefaniak/projects/zuza/docking/adenine/4TZX

>  <Rbt.Executable>
rbdock ($Id: //depot/dev/client3/rdock/2013.1/src/exe/rbdock.cxx#4 $)

>  <Rbt.Library>
libRbt.so (2013.1, Build901 2013/11/27)

>  <Rbt.Parameter_File>
/home/fstefaniak/progs/rDock//data/scripts/dock_solv.prm

>  <Rbt.Receptor>
4tzx.prm

>  <SCORE>
-38.2864

>  <SCORE.INTER>
-17.0206

>  <SCORE.INTER.CONST>
1

>  <SCORE.INTER.POLAR>
-2.4584

>  <SCORE.INTER.ROT>
1

>  <SCORE.INTER.SOLV>
23.1749

>  <SCORE.INTER.VDW>
-15.144

>  <SCORE.INTER.norm>
-1.89117

>  <SCORE.INTRA>
-0.0770601

>  <SCORE.INTRA.DIHEDRAL>
-0.00333032

>  <SCORE.INTRA.DIHEDRAL.0>
0.0122702

>  <SCORE.INTRA.POLAR>
0

>  <SCORE.INTRA.POLAR.0>
0

>  <SCORE.INTRA.REPUL>
0

>  <SCORE.INTRA.REPUL.0>
0

>  <SCORE.INTRA.SOLV>
-0.203463

>  <SCORE.INTRA.SOLV.lig_0>
-47.0325

>  <SCORE.INTRA.VDW>
0.0263366

>  <SCORE.INTRA.VDW.0>
0.280464

>  <SCORE.INTRA.norm>
-0.00856223

>  <SCORE.RESTR>
0

>  <SCORE.RESTR.CAVITY>
0

>  <SCORE.RESTR.norm>
0

>  <SCORE.SYSTEM>
-21.1888

>  <SCORE.SYSTEM.CONST>
0

>  <SCORE.SYSTEM.DIHEDRAL>
4.28755

>  <SCORE.SYSTEM.POLAR>
-3.03774

>  <SCORE.SYSTEM.SOLV>
0.18225

>  <SCORE.SYSTEM.VDW>
-5.49001

>  <SCORE.SYSTEM.norm>
-2.35431

>  <SCORE.heavy>
9

>  <SCORE.norm>
-4.25405

$$$$
P41974730
 OpenBabel12072022113D
libRbt.so/2013.1/901 2013/11/27
 14 14  0  0  0  0  0  0  0  0999 V2000
  -27.7036   14.5404  -16.4413 C   0  0  0  0  0  0  0  0  0  0  0  0
  -29.1247   14.7004  -15.8843 C   0  0  0  0  0  0  0  0  0  0  0  0
  -29.4489   16.1434  -16.2062 C   0  0  0  0  0  0  0  0  0  0  0  0
  -30.6687   16.6717  -16.0486 C   0  0  0  0  0  0  0  0  0  0  0  0
  -30.9661   18.1042  -16.3085 C   0  0  0  0  0  0  0  0  0  0  0  0
  -31.6121   18.8321  -15.5613 O   0  0  0  0  0  0  0  0  0  0  0  0
  -30.4404   18.6788  -17.6335 C   0  0  0  0  0  0  0  0  0  0  0  0
  -29.6862   18.0558  -18.3625 O   0  0  0  0  0  0  0  0  0  0  0  0
  -30.8964   19.9371  -17.9192 N   0  0  0  0  0  0  0  0  0  0  0  0
  -28.2958   16.7592  -16.6293 N   0  0  0  0  0  0  0  0  0  0  0  0
  -27.1166   15.9528  -16.4087 C   0  0  0  0  0  0  0  0  0  0  0  0
  -31.5322   20.3976  -17.2765 H   0  0  0  0  0  0  0  0  0  0  0  0
  -30.6138   20.3927  -18.7743 H   0  0  0  0  0  0  0  0  0  0  0  0
  -28.2593   17.7773  -16.5584 H   0  0  0  0  0  0  0  0  0  0  0  0
  1  2  1  0  0  0  0
  1 11  1  0  0  0  0
  2  3  1  0  0  0  0
  3  4  2  0  0  0  0
  3 10  1  0  0  0  0
  4  5  1  0  0  0  0
  5  6  2  0  0  0  0
  5  7  1  0  0  0  0
  7  8  2  0  0  0  0
  7  9  1  0  0  0  0
  9 12  1  0  0  0  0
  9 13  1  0  0  0  0
 10 11  1  0  0  0  0
 10 14  1  0  0  0  0
M  END
>  <CHROM.0>
-56.28271177,169.42715536,-68.69418433,-43.72088815,-177.33967661,-66.34167300
-67.68600978,-57.23307395,-168.71403952

>  <CHROM.1>
-133.63493871,-8.57898007,-29.63619133,17.18824091,-16.69958743,-0.80253011
0.55754876,-0.69034493

>  <Name>
P41974730

>  <RI>
0

>  <Rbt.Current_Directory>
/home/fstefaniak/projects/zuza/docking/adenine/4TZX

>  <Rbt.Executable>
rbdock ($Id: //depot/dev/client3/rdock/2013.1/src/exe/rbdock.cxx#4 $)

>  <Rbt.Library>
libRbt.so (2013.1, Build901 2013/11/27)

>  <Rbt.Parameter_File>
/home/fstefaniak/progs/rDock//data/scripts/dock_solv.prm

>  <Rbt.Receptor>
4tzx.prm

>  <SCORE>
-47.3995

>  <SCORE.INTER>
-30.3747

>  <SCORE.INTER.CONST>
1

>  <SCORE.INTER.POLAR>
-3.71235

>  <SCORE.INTER.ROT>
2

>  <SCORE.INTER.SOLV>
14.5382

>  <SCORE.INTER.VDW>
-17.6547

>  <SCORE.INTER.norm>
-2.76133

>  <SCORE.INTRA>
3.62596

>  <SCORE.INTRA.DIHEDRAL>
6.17581

>  <SCORE.INTRA.DIHEDRAL.0>
0.161203

>  <SCORE.INTRA.POLAR>
0

>  <SCORE.INTRA.POLAR.0>
0

>  <SCORE.INTRA.REPUL>
0

>  <SCORE.INTRA.REPUL.0>
0

>  <SCORE.INTRA.SOLV>
1.07003

>  <SCORE.INTRA.SOLV.lig_0>
-17.802

>  <SCORE.INTRA.VDW>
0.00303869

>  <SCORE.INTRA.VDW.0>
-0.434368

>  <SCORE.INTRA.norm>
0.329633

>  <SCORE.RESTR>
0

>  <SCORE.RESTR.CAVITY>
0

>  <SCORE.RESTR.norm>
0

>  <SCORE.SYSTEM>
-20.6507

>  <SCORE.SYSTEM.CONST>
0

>  <SCORE.SYSTEM.DIHEDRAL>
5.32417

>  <SCORE.SYSTEM.POLAR>
-3.06147

>  <SCORE.SYSTEM.SOLV>
-0.0209641

>  <SCORE.SYSTEM.VDW>
-5.32998

>  <SCORE.SYSTEM.norm>
-1.87734

>  <SCORE.heavy>
11

>  <SCORE.norm>
-4.30904

$$$$
P41974730
 OpenBabel12072022113D
libRbt.so/2013.1/901 2013/11/27
 14 14  0  0  0  0  0  0  0  0999 V2000
  -27.6945   14.5570  -16.4410 C   0  0  0  0  0  0  0  0  0  0  0  0
  -29.1160   14.7090  -15.8825 C   0  0  0  0  0  0  0  0  0  0  0  0
  -29.4451   16.1528  -16.1959 C   0  0  0  0  0  0  0  0  0  0  0  0
  -30.6666   16.6761  -16.0348 C   0  0  0  0  0  0  0  0  0  0  0  0
  -30.9689   18.1090  -16.2862 C   0  0  0  0  0  0  0  0  0  0  0  0
  -31.6131   18.8317  -15.5323 O   0  0  0  0  0  0  0  0  0  0  0  0
  -30.4511   18.6915  -17.6110 C   0  0  0  0  0  0  0  0  0  0  0  0
  -29.7310   18.0590  -18.3657 O   0  0  0  0  0  0  0  0  0  0  0  0
  -30.8730   19.9683  -17.8650 N   0  0  0  0  0  0  0  0  0  0  0  0
  -28.2943   16.7748  -16.6159 N   0  0  0  0  0  0  0  0  0  0  0  0
  -27.1122   15.9711  -16.4005 C   0  0  0  0  0  0  0  0  0  0  0  0
  -31.4815   20.4363  -17.2017 H   0  0  0  0  0  0  0  0  0  0  0  0
  -30.5928   20.4306  -18.7174 H   0  0  0  0  0  0  0  0  0  0  0  0
  -28.2611   17.7926  -16.5391 H   0  0  0  0  0  0  0  0  0  0  0  0
  1  2  1  0  0  0  0
  1 11  1  0  0  0  0
  2  3  1  0  0  0  0
  3  4  2  0  0  0  0
  3 10  1  0  0  0  0
  4  5  1  0  0  0  0
  5  6  2  0  0  0  0
  5  7  1  0  0  0  0
  7  8  2  0  0  0  0
  7  9  1  0  0  0  0
  9 12  1  0  0  0  0
  9 13  1  0  0  0  0
 10 11  1  0  0  0  0
 10 14  1  0  0  0  0
M  END
>  <CHROM.0>
-59.49978097,169.19123111,-64.12166415,-43.12992602,58.69032496,-63.34615069
-64.86548699,-176.61540705,-168.88762715

>  <CHROM.1>
-133.37057241,-6.34169797,-29.63677838,17.19978777,-16.68339057,-0.79952314
0.55982020,-0.68774339

>  <Name>
P41974730

>  <RI>
0

>  <Rbt.Current_Directory>
/home/fstefaniak/projects/zuza/docking/adenine/4TZX

>  <Rbt.Executable>
rbdock ($Id: //depot/dev/client3/rdock/2013.1/src/exe/rbdock.cxx#4 $)

>  <Rbt.Library>
libRbt.so (2013.1, Build901 2013/11/27)

>  <Rbt.Parameter_File>
/home/fstefaniak/progs/rDock//data/scripts/dock_solv.prm

>  <Rbt.Receptor>
4tzx.prm

>  <SCORE>
-46.417

>  <SCORE.INTER>
-30.2759

>  <SCORE.INTER.CONST>
1

>  <SCORE.INTER.POLAR>
-3.64041

>  <SCORE.INTER.ROT>
2

>  <SCORE.INTER.SOLV>
14.5922

>  <SCORE.INTER.VDW>
-17.8466

>  <SCORE.INTER.norm>
-2.75235

>  <SCORE.INTRA>
3.51721

>  <SCORE.INTRA.DIHEDRAL>
6.12201

>  <SCORE.INTRA.DIHEDRAL.0>
0.161203

>  <SCORE.INTRA.POLAR>
0

>  <SCORE.INTRA.POLAR.0>
0

>  <SCORE.INTRA.REPUL>
0

>  <SCORE.INTRA.REPUL.0>
0

>  <SCORE.INTRA.SOLV>
1.06069

>  <SCORE.INTRA.SOLV.lig_0>
-17.802

>  <SCORE.INTRA.VDW>
-0.0741373

>  <SCORE.INTRA.VDW.0>
-0.434368

>  <SCORE.INTRA.norm>
0.319746

>  <SCORE.RESTR>
0

>  <SCORE.RESTR.CAVITY>
0

>  <SCORE.RESTR.norm>
0

>  <SCORE.SYSTEM>
-19.6584

>  <SCORE.SYSTEM.CONST>
0

>  <SCORE.SYSTEM.DIHEDRAL>
4.79284

>  <SCORE.SYSTEM.POLAR>
-3.05249

>  <SCORE.SYSTEM.SOLV>
-0.172336

>  <SCORE.SYSTEM.VDW>
-4.4708

>  <SCORE.SYSTEM.norm>
-1.78713

>  <SCORE.heavy>
11

>  <SCORE.norm>
-4.21973

$$$$
P41974730
 OpenBabel12072022113D
libRbt.so/2013.1/901 2013/11/27
 14 14  0  0  0  0  0  0  0  0999 V2000
  -25.5188   13.4562  -16.3317 C   0  0  0  0  0  0  0  0  0  0  0  0
  -25.9911   14.7489  -17.0109 C   0  0  0  0  0  0  0  0  0  0  0  0
  -27.2856   15.0522  -16.2878 C   0  0  0  0  0  0  0  0  0  0  0  0
  -27.9595   16.1982  -16.4440 C   0  0  0  0  0  0  0  0  0  0  0  0
  -29.2609   16.4649  -15.7782 C   0  0  0  0  0  0  0  0  0  0  0  0
  -29.6641   15.8891  -14.7725 O   0  0  0  0  0  0  0  0  0  0  0  0
  -30.1596   17.5219  -16.4396 C   0  0  0  0  0  0  0  0  0  0  0  0
  -31.0345   18.1115  -15.8270 O   0  0  0  0  0  0  0  0  0  0  0  0
  -29.8863   17.7420  -17.7623 N   0  0  0  0  0  0  0  0  0  0  0  0
  -27.6152   13.9614  -15.5201 N   0  0  0  0  0  0  0  0  0  0  0  0
  -26.8016   12.8032  -15.8137 C   0  0  0  0  0  0  0  0  0  0  0  0
  -29.1367   17.2267  -18.2116 H   0  0  0  0  0  0  0  0  0  0  0  0
  -30.4179   18.4272  -18.2787 H   0  0  0  0  0  0  0  0  0  0  0  0
  -28.5947   13.8627  -15.2486 H   0  0  0  0  0  0  0  0  0  0  0  0
  1  2  1  0  0  0  0
  1 11  1  0  0  0  0
  2  3  1  0  0  0  0
  3  4  2  0  0  0  0
  3 10  1  0  0  0  0
  4  5  1  0  0  0  0
  5  6  2  0  0  0  0
  5  7  1  0  0  0  0
  7  8  2  0  0  0  0
  7  9  1  0  0  0  0
  9 12  1  0  0  0  0
  9 13  1  0  0  0  0
 10 11  1  0  0  0  0
 10 14  1  0  0  0  0
M  END
>  <CHROM.0>
-60.66807326,-61.52982570,-67.10029962,-43.43875882,-57.74178635,-61.58138179
-67.23579167,-176.99318173,-169.77870717

>  <CHROM.1>
21.57058343,-158.13135603,-28.34102745,15.65212077,-16.17770193,-0.53173076
0.59970729,-0.80347690

>  <Name>
P41974730

>  <RI>
0

>  <Rbt.Current_Directory>
/home/fstefaniak/projects/zuza/docking/adenine/4TZX

>  <Rbt.Executable>
rbdock ($Id: //depot/dev/client3/rdock/2013.1/src/exe/rbdock.cxx#4 $)

>  <Rbt.Library>
libRbt.so (2013.1, Build901 2013/11/27)

>  <Rbt.Parameter_File>
/home/fstefaniak/progs/rDock//data/scripts/dock_solv.prm

>  <Rbt.Receptor>
4tzx.prm

>  <SCORE>
-45.907

>  <SCORE.INTER>
-26.8767

>  <SCORE.INTER.CONST>
1

>  <SCORE.INTER.POLAR>
-3.15328

>  <SCORE.INTER.ROT>
2

>  <SCORE.INTER.SOLV>
10.8624

>  <SCORE.INTER.VDW>
-15.961

>  <SCORE.INTER.norm>
-2.44333

>  <SCORE.INTRA>
2.10026

>  <SCORE.INTRA.DIHEDRAL>
3.13959

>  <SCORE.INTRA.DIHEDRAL.0>
0.161203

>  <SCORE.INTRA.POLAR>
0

>  <SCORE.INTRA.POLAR.0>
0

>  <SCORE.INTRA.REPUL>
0

>  <SCORE.INTRA.REPUL.0>
0

>  <SCORE.INTRA.SOLV>
-0.0277696

>  <SCORE.INTRA.SOLV.lig_0>
-17.802

>  <SCORE.INTRA.VDW>
0.544346

>  <SCORE.INTRA.VDW.0>
-0.434368

>  <SCORE.INTRA.norm>
0.190932

>  <SCORE.RESTR>
0

>  <SCORE.RESTR.CAVITY>
0

>  <SCORE.RESTR.norm>
0

>  <SCORE.SYSTEM>
-21.1306

>  <SCORE.SYSTEM.CONST>
0

>  <SCORE.SYSTEM.DIHEDRAL>
4.37427

>  <SCORE.SYSTEM.POLAR>
-3.02181

>  <SCORE.SYSTEM.SOLV>
0.0496569

>  <SCORE.SYSTEM.VDW>
-5.48902

>  <SCORE.SYSTEM.norm>
-1.92097

>  <SCORE.heavy>
11

>  <SCORE.norm>
-4.17337

$$$$
P43850240
 OpenBabel12072022113D
libRbt.so/2013.1/901 2013/11/27
 16 16  0  0  0  0  0  0  0  0999 V2000
  -27.8671   11.5378  -16.4882 C   0  0  0  0  0  0  0  0  0  0  0  0
  -27.8002   12.6627  -17.4903 C   0  0  0  0  0  0  0  0  0  0  0  0
  -27.7344   12.4109  -18.6940 O   0  0  0  0  0  0  0  0  0  0  0  0
  -27.8373   13.9657  -16.9925 N   0  0  0  0  0  0  0  0  0  0  0  0
  -26.6033   14.4788  -16.4011 C   0  0  0  0  0  0  0  0  0  0  0  0
  -26.5125   15.9972  -16.4866 C   0  0  0  0  0  0  0  0  0  0  0  0
  -27.7626   16.6650  -15.9239 C   0  0  0  0  0  0  0  0  0  0  0  0
  -29.0150   16.1373  -16.6320 C   0  0  1  0  0  0  0  0  0  0  0  0
  -29.0797   14.6080  -16.5471 C   0  0  0  0  0  0  0  0  0  0  0  0
  -30.2816   16.7402  -16.0415 C   0  0  0  0  0  0  0  0  0  0  0  0
  -30.7846   16.3603  -14.9861 O   0  0  0  0  0  0  0  0  0  0  0  0
  -30.8375   17.7534  -16.8124 N   0  0  0  0  0  0  0  0  0  0  0  0
  -31.9924   18.4209  -16.3563 N   0  0  0  0  0  0  0  0  0  0  0  0
  -30.3980   18.0701  -17.6744 H   0  0  0  0  0  0  0  0  0  0  0  0
  -32.7300   17.7115  -16.2516 H   0  0  0  0  0  0  0  0  0  0  0  0
  -32.3398   18.9992  -17.1287 H   0  0  0  0  0  0  0  0  0  0  0  0
  1  2  1  0  0  0  0
  2  3  2  0  0  0  0
  2  4  1  0  0  0  0
  4  5  1  0  0  0  0
  4  9  1  0  0  0  0
  5  6  1  0  0  0  0
  6  7  1  0  0  0  0
  7  8  1  0  0  0  0
  8  9  1  0  0  0  0
  8 10  1  1  0  0  0
 10 11  2  0  0  0  0
 10 12  1  0  0  0  0
 12 13  1  0  0  0  0
 12 14  1  0  0  0  0
 13 15  1  0  0  0  0
 13 16  1  0  0  0  0
M  END
>  <CHROM.0>
-62.29962990,-59.86921304,-54.35670191,-42.16031421,-56.68031639,-61.33719137
-67.81147612,62.89419288,-169.06655919

>  <CHROM.1>
77.21454034,-78.36031826,-59.85678362,-28.82508609,15.22840605,-16.61144545
0.95339341,0.05800104,-2.86772670

>  <Name>
P43850240

>  <RI>
0

>  <Rbt.Current_Directory>
/home/fstefaniak/projects/zuza/docking/adenine/4TZX

>  <Rbt.Executable>
rbdock ($Id: //depot/dev/client3/rdock/2013.1/src/exe/rbdock.cxx#4 $)

>  <Rbt.Library>
libRbt.so (2013.1, Build901 2013/11/27)

>  <Rbt.Parameter_File>
/home/fstefaniak/progs/rDock//data/scripts/dock_solv.prm

>  <Rbt.Receptor>
4tzx.prm

>  <SCORE>
-45.6652

>  <SCORE.INTER>
-23.8355

>  <SCORE.INTER.CONST>
1

>  <SCORE.INTER.POLAR>
-2.92564

>  <SCORE.INTER.ROT>
3

>  <SCORE.INTER.SOLV>
13.7125

>  <SCORE.INTER.VDW>
-16.309

>  <SCORE.INTER.norm>
-1.8335

>  <SCORE.INTRA>
-1.96359

>  <SCORE.INTRA.DIHEDRAL>
2.70866

>  <SCORE.INTRA.DIHEDRAL.0>
1.53072

>  <SCORE.INTRA.POLAR>
0

>  <SCORE.INTRA.POLAR.0>
0

>  <SCORE.INTRA.REPUL>
0

>  <SCORE.INTRA.REPUL.0>
0

>  <SCORE.INTRA.SOLV>
-0.371713

>  <SCORE.INTRA.SOLV.lig_0>
-21.8215

>  <SCORE.INTRA.VDW>
-3.13207

>  <SCORE.INTRA.VDW.0>
2.81377

>  <SCORE.INTRA.norm>
-0.151046

>  <SCORE.RESTR>
0.0308899

>  <SCORE.RESTR.CAVITY>
0.0308899

>  <SCORE.RESTR.norm>
0.00237614

>  <SCORE.SYSTEM>
-19.897

>  <SCORE.SYSTEM.CONST>
0

>  <SCORE.SYSTEM.DIHEDRAL>
4.60952

>  <SCORE.SYSTEM.POLAR>
-3.0894

>  <SCORE.SYSTEM.SOLV>
0.0281492

>  <SCORE.SYSTEM.VDW>
-4.51252

>  <SCORE.SYSTEM.norm>
-1.53054

>  <SCORE.heavy>
13

>  <SCORE.norm>
-3.5127

$$$$
P43850240
 OpenBabel12072022113D
libRbt.so/2013.1/901 2013/11/27
 16 16  0  0  0  0  0  0  0  0999 V2000
  -27.9447   11.4541  -16.4609 C   0  0  0  0  0  0  0  0  0  0  0  0
  -27.8117   12.5503  -17.4880 C   0  0  0  0  0  0  0  0  0  0  0  0
  -27.7779   12.2692  -18.6866 O   0  0  0  0  0  0  0  0  0  0  0  0
  -27.7525   13.8630  -17.0184 N   0  0  0  0  0  0  0  0  0  0  0  0
  -26.4763   14.3041  -16.4594 C   0  0  0  0  0  0  0  0  0  0  0  0
  -26.2858   15.8108  -16.5799 C   0  0  0  0  0  0  0  0  0  0  0  0
  -27.4778   16.5727  -16.0110 C   0  0  0  0  0  0  0  0  0  0  0  0
  -28.7755   16.1159  -16.6859 C   0  0  1  0  0  0  0  0  0  0  0  0
  -28.9408   14.5965  -16.5663 C   0  0  0  0  0  0  0  0  0  0  0  0
  -29.9878   16.8148  -16.0876 C   0  0  0  0  0  0  0  0  0  0  0  0
  -30.5466   16.4401  -15.0586 O   0  0  0  0  0  0  0  0  0  0  0  0
  -30.4258   17.9116  -16.8191 N   0  0  0  0  0  0  0  0  0  0  0  0
  -31.5180   18.6696  -16.3501 N   0  0  0  0  0  0  0  0  0  0  0  0
  -29.9402   18.2212  -17.6586 H   0  0  0  0  0  0  0  0  0  0  0  0
  -32.3739   18.1822  -16.6471 H   0  0  0  0  0  0  0  0  0  0  0  0
  -31.5483   19.5373  -16.8959 H   0  0  0  0  0  0  0  0  0  0  0  0
  1  2  1  0  0  0  0
  2  3  2  0  0  0  0
  2  4  1  0  0  0  0
  4  5  1  0  0  0  0
  4  9  1  0  0  0  0
  5  6  1  0  0  0  0
  6  7  1  0  0  0  0
  7  8  1  0  0  0  0
  8  9  1  0  0  0  0
  8 10  1  1  0  0  0
 10 11  2  0  0  0  0
 10 12  1  0  0  0  0
 12 13  1  0  0  0  0
 12 14  1  0  0  0  0
 13 15  1  0  0  0  0
 13 16  1  0  0  0  0
M  END
>  <CHROM.0>
-60.93731575,-61.04059012,-70.58203891,-43.66016788,-178.91549180,-178.31030381
-171.78967705,-62.61785476,-169.16394035

>  <CHROM.1>
77.61538218,-83.06906386,-82.76579783,-28.63841426,15.20642528,-16.64380704
1.03497794,0.03112974,-2.90863807

>  <Name>
P43850240

>  <RI>
0

>  <Rbt.Current_Directory>
/home/fstefaniak/projects/zuza/docking/adenine/4TZX

>  <Rbt.Executable>
rbdock ($Id: //depot/dev/client3/rdock/2013.1/src/exe/rbdock.cxx#4 $)

>  <Rbt.Library>
libRbt.so (2013.1, Build901 2013/11/27)

>  <Rbt.Parameter_File>
/home/fstefaniak/progs/rDock//data/scripts/dock_solv.prm

>  <Rbt.Receptor>
4tzx.prm

>  <SCORE>
-42.5628

>  <SCORE.INTER>
-19.8843

>  <SCORE.INTER.CONST>
1

>  <SCORE.INTER.POLAR>
-2.15148

>  <SCORE.INTER.ROT>
3

>  <SCORE.INTER.SOLV>
13.1435

>  <SCORE.INTER.VDW>
-16.0658

>  <SCORE.INTER.norm>
-1.52956

>  <SCORE.INTRA>
-2.15887

>  <SCORE.INTRA.DIHEDRAL>
2.31648

>  <SCORE.INTRA.DIHEDRAL.0>
1.53072

>  <SCORE.INTRA.POLAR>
0

>  <SCORE.INTRA.POLAR.0>
0

>  <SCORE.INTRA.REPUL>
0

>  <SCORE.INTRA.REPUL.0>
0

>  <SCORE.INTRA.SOLV>
-0.395271

>  <SCORE.INTRA.SOLV.lig_0>
-21.8215

>  <SCORE.INTRA.VDW>
-3.11947

>  <SCORE.INTRA.VDW.0>
2.81377

>  <SCORE.INTRA.norm>
-0.166067

>  <SCORE.RESTR>
0.031111

>  <SCORE.RESTR.CAVITY>
0.031111

>  <SCORE.RESTR.norm>
0.00239316

>  <SCORE.SYSTEM>
-20.5508

>  <SCORE.SYSTEM.CONST>
0

>  <SCORE.SYSTEM.DIHEDRAL>
4.70672

>  <SCORE.SYSTEM.POLAR>
-3.01728

>  <SCORE.SYSTEM.SOLV>
-0.150901

>  <SCORE.SYSTEM.VDW>
-5.16154

>  <SCORE.SYSTEM.norm>
-1.58083

>  <SCORE.heavy>
13

>  <SCORE.norm>
-3.27406

$$$$
P43850240
 OpenBabel12072022113D
libRbt.so/2013.1/901 2013/11/27
 16 16  0  0  0  0  0  0  0  0999 V2000
  -31.3948   18.7920  -17.4498 C   0  0  0  0  0  0  0  0  0  0  0  0
  -31.0416   18.2864  -16.0737 C   0  0  0  0  0  0  0  0  0  0  0  0
  -31.5682   18.7887  -15.0801 O   0  0  0  0  0  0  0  0  0  0  0  0
  -30.1280   17.2348  -15.9936 N   0  0  0  0  0  0  0  0  0  0  0  0
  -30.6196   15.9785  -15.4314 C   0  0  0  0  0  0  0  0  0  0  0  0
  -29.8454   14.7738  -15.9515 C   0  0  0  0  0  0  0  0  0  0  0  0
  -28.3420   14.9555  -15.7734 C   0  0  0  0  0  0  0  0  0  0  0  0
  -27.8774   16.2528  -16.4439 C   0  0  1  0  0  0  0  0  0  0  0  0
  -28.6781   17.4496  -15.9180 C   0  0  0  0  0  0  0  0  0  0  0  0
  -26.3905   16.4901  -16.2223 C   0  0  0  0  0  0  0  0  0  0  0  0
  -25.9286   16.9828  -15.1950 O   0  0  0  0  0  0  0  0  0  0  0  0
  -25.5925   16.1168  -17.2965 N   0  0  0  0  0  0  0  0  0  0  0  0
  -24.1922   16.2495  -17.2024 N   0  0  0  0  0  0  0  0  0  0  0  0
  -25.9884   15.6917  -18.1327 H   0  0  0  0  0  0  0  0  0  0  0  0
  -23.9291   16.0003  -16.2396 H   0  0  0  0  0  0  0  0  0  0  0  0
  -23.9735   17.2505  -17.2471 H   0  0  0  0  0  0  0  0  0  0  0  0
  1  2  1  0  0  0  0
  2  3  2  0  0  0  0
  2  4  1  0  0  0  0
  4  5  1  0  0  0  0
  4  9  1  0  0  0  0
  5  6  1  0  0  0  0
  6  7  1  0  0  0  0
  7  8  1  0  0  0  0
  8  9  1  0  0  0  0
  8 10  1  1  0  0  0
 10 11  2  0  0  0  0
 10 12  1  0  0  0  0
 12 13  1  0  0  0  0
 12 14  1  0  0  0  0
 13 15  1  0  0  0  0
 13 16  1  0  0  0  0
M  END
>  <CHROM.0>
-57.83742826,-70.32922173,-42.90336836,-43.66560607,-175.11027808,-57.35659918
-61.61796257,-173.73073535,-168.97996231

>  <CHROM.1>
-116.50691611,-81.60914388,37.82317571,-28.54038271,16.81260623,-16.15715016
-2.88545761,-0.16176577,2.94346826

>  <Name>
P43850240

>  <RI>
0

>  <Rbt.Current_Directory>
/home/fstefaniak/projects/zuza/docking/adenine/4TZX

>  <Rbt.Executable>
rbdock ($Id: //depot/dev/client3/rdock/2013.1/src/exe/rbdock.cxx#4 $)

>  <Rbt.Library>
libRbt.so (2013.1, Build901 2013/11/27)

>  <Rbt.Parameter_File>
/home/fstefaniak/progs/rDock//data/scripts/dock_solv.prm

>  <Rbt.Receptor>
4tzx.prm

>  <SCORE>
-41.1505

>  <SCORE.INTER>
-18.183

>  <SCORE.INTER.CONST>
1

>  <SCORE.INTER.POLAR>
-3.98903

>  <SCORE.INTER.ROT>
3

>  <SCORE.INTER.SOLV>
18.5291

>  <SCORE.INTER.VDW>
-10.6016

>  <SCORE.INTER.norm>
-1.39869

>  <SCORE.INTRA>
-2.3796

>  <SCORE.INTRA.DIHEDRAL>
2.4233

>  <SCORE.INTRA.DIHEDRAL.0>
1.53072

>  <SCORE.INTRA.POLAR>
0

>  <SCORE.INTRA.POLAR.0>
0

>  <SCORE.INTRA.REPUL>
0

>  <SCORE.INTRA.REPUL.0>
0

>  <SCORE.INTRA.SOLV>
-0.19626

>  <SCORE.INTRA.SOLV.lig_0>
-21.8215

>  <SCORE.INTRA.VDW>
-3.49312

>  <SCORE.INTRA.VDW.0>
2.81377

>  <SCORE.INTRA.norm>
-0.183046

>  <SCORE.RESTR>
0

>  <SCORE.RESTR.CAVITY>
0

>  <SCORE.RESTR.norm>
0

>  <SCORE.SYSTEM>
-20.5879

>  <SCORE.SYSTEM.CONST>
0

>  <SCORE.SYSTEM.DIHEDRAL>
5.96429

>  <SCORE.SYSTEM.POLAR>
-3.21483

>  <SCORE.SYSTEM.SOLV>
-0.0878857

>  <SCORE.SYSTEM.VDW>
-4.968

>  <SCORE.SYSTEM.norm>
-1.58369

>  <SCORE.heavy>
13

>  <SCORE.norm>
-3.16542

$$$$
P49788671
 OpenBabel12072022113D
libRbt.so/2013.1/901 2013/11/27
 16 16  0  0  0  0  0  0  0  0999 V2000
  -26.1248   10.9906  -16.3460 C   0  0  0  0  0  0  0  0  0  0  0  0
  -24.6594   11.4020  -16.4027 C   0  0  0  0  0  0  0  0  0  0  0  0
  -24.3072   12.8893  -16.4584 C   0  0  0  0  0  0  0  0  0  0  0  0
  -25.0668   13.8601  -15.5412 C   0  0  1  0  0  0  0  0  0  0  0  0
  -26.2002   14.6669  -16.2129 C   0  0  2  0  0  0  0  0  0  0  0  0
  -27.4348   13.8745  -16.7097 C   0  0  1  0  0  0  0  0  0  0  0  0
  -27.1531   12.8823  -17.8696 C   0  0  1  0  0  0  0  0  0  0  0  0
  -27.0127   11.3992  -17.5126 C   0  0  0  0  0  0  0  0  0  0  0  0
  -28.2337   12.9211  -18.8279 O   0  0  0  0  0  0  0  0  0  0  0  0
  -28.1410   13.2583  -15.6304 O   0  0  0  0  0  0  0  0  0  0  0  0
  -25.6875   15.5333  -17.2326 O   0  0  0  0  0  0  0  0  0  0  0  0
  -25.5607   13.2129  -14.3717 O   0  0  0  0  0  0  0  0  0  0  0  0
  -28.3113   13.8256  -19.1753 H   0  0  0  0  0  0  0  0  0  0  0  0
  -28.9206   12.8000  -16.0073 H   0  0  0  0  0  0  0  0  0  0  0  0
  -25.2774   15.0115  -17.9405 H   0  0  0  0  0  0  0  0  0  0  0  0
  -24.7885   12.8957  -13.8677 H   0  0  0  0  0  0  0  0  0  0  0  0
  1  2  1  0  0  0  0
  1  8  1  0  0  0  0
  2  3  1  0  0  0  0
  3  4  1  0  0  0  0
  4  5  1  0  0  0  0
  4 12  1  1  0  0  0
  5 11  1  6  0  0  0
  5  6  1  0  0  0  0
  6 10  1  1  0  0  0
  6  7  1  0  0  0  0
  7  8  1  0  0  0  0
  7  9  1  6  0  0  0
  9 13  1  0  0  0  0
 10 14  1  0  0  0  0
 11 15  1  0  0  0  0
 12 16  1  0  0  0  0
M  END
>  <CHROM.0>
-57.12487842,76.37675710,-71.76034597,-43.08961762,-172.45143685,-174.53022019
-167.88253417,-55.80336387,-167.94521528

>  <CHROM.1>
63.14539137,62.86486853,178.26270055,59.41707882,-26.33393993,13.09935244
-16.59326890,-0.13983332,0.69238761,-3.04640481

>  <Name>
P49788671

>  <RI>
0

>  <Rbt.Current_Directory>
/home/fstefaniak/projects/zuza/docking/adenine/4TZX

>  <Rbt.Executable>
rbdock ($Id: //depot/dev/client3/rdock/2013.1/src/exe/rbdock.cxx#4 $)

>  <Rbt.Library>
libRbt.so (2013.1, Build901 2013/11/27)

>  <Rbt.Parameter_File>
/home/fstefaniak/progs/rDock//data/scripts/dock_solv.prm

>  <Rbt.Receptor>
4tzx.prm

>  <SCORE>
-38.4261

>  <SCORE.INTER>
-20.2985

>  <SCORE.INTER.CONST>
1

>  <SCORE.INTER.POLAR>
-3.24879

>  <SCORE.INTER.ROT>
0

>  <SCORE.INTER.SOLV>
11.5692

>  <SCORE.INTER.VDW>
-10.1594

>  <SCORE.INTER.norm>
-1.69154

>  <SCORE.INTRA>
-0.145497

>  <SCORE.INTRA.DIHEDRAL>
-5.46677

>  <SCORE.INTRA.DIHEDRAL.0>
6.94411

>  <SCORE.INTRA.POLAR>
0.890466

>  <SCORE.INTRA.POLAR.0>
-0.890466

>  <SCORE.INTRA.REPUL>
0

>  <SCORE.INTRA.REPUL.0>
0

>  <SCORE.INTRA.SOLV>
0.00750811

>  <SCORE.INTRA.SOLV.lig_0>
-17.6825

>  <SCORE.INTRA.VDW>
-0.443449

>  <SCORE.INTRA.VDW.0>
0.0281383

>  <SCORE.INTRA.norm>
-0.0121247

>  <SCORE.RESTR>
0.664705

>  <SCORE.RESTR.CAVITY>
0.664705

>  <SCORE.RESTR.norm>
0.0553921

>  <SCORE.SYSTEM>
-18.6468

>  <SCORE.SYSTEM.CONST>
0

>  <SCORE.SYSTEM.DIHEDRAL>
7.03156

>  <SCORE.SYSTEM.POLAR>
-3.06004

>  <SCORE.SYSTEM.SOLV>
-0.129052

>  <SCORE.SYSTEM.VDW>
-4.53188

>  <SCORE.SYSTEM.norm>
-1.5539

>  <SCORE.heavy>
12

>  <SCORE.norm>
-3.20217

$$$$
P49788671
 OpenBabel12072022113D
libRbt.so/2013.1/901 2013/11/27
 16 16  0  0  0  0  0  0  0  0999 V2000
  -27.9691   15.2178  -15.8790 C   0  0  0  0  0  0  0  0  0  0  0  0
  -28.6580   13.9907  -16.4616 C   0  0  0  0  0  0  0  0  0  0  0  0
  -27.8444   12.7132  -16.6747 C   0  0  0  0  0  0  0  0  0  0  0  0
  -26.8721   12.2677  -15.5716 C   0  0  1  0  0  0  0  0  0  0  0  0
  -25.3836   12.6005  -15.8171 C   0  0  2  0  0  0  0  0  0  0  0  0
  -24.9847   14.0970  -15.8245 C   0  0  1  0  0  0  0  0  0  0  0  0
  -25.5914   14.9312  -16.9844 C   0  0  1  0  0  0  0  0  0  0  0  0
  -26.8065   15.8075  -16.6644 C   0  0  0  0  0  0  0  0  0  0  0  0
  -24.6064   15.8551  -17.4979 O   0  0  0  0  0  0  0  0  0  0  0  0
  -25.1949   14.7098  -14.5502 O   0  0  0  0  0  0  0  0  0  0  0  0
  -24.8824   11.9180  -16.9731 O   0  0  0  0  0  0  0  0  0  0  0  0
  -27.2688   12.7415  -14.2876 O   0  0  0  0  0  0  0  0  0  0  0  0
  -23.9607   16.0454  -16.7968 H   0  0  0  0  0  0  0  0  0  0  0  0
  -24.6941   15.5518  -14.5381 H   0  0  0  0  0  0  0  0  0  0  0  0
  -25.2655   12.2986  -17.7793 H   0  0  0  0  0  0  0  0  0  0  0  0
  -26.6926   12.3112  -13.6290 H   0  0  0  0  0  0  0  0  0  0  0  0
  1  2  1  0  0  0  0
  1  8  1  0  0  0  0
  2  3  1  0  0  0  0
  3  4  1  0  0  0  0
  4  5  1  0  0  0  0
  4 12  1  1  0  0  0
  5 11  1  6  0  0  0
  5  6  1  0  0  0  0
  6 10  1  1  0  0  0
  6  7  1  0  0  0  0
  7  8  1  0  0  0  0
  7  9  1  1  0  0  0
  9 13  1  0  0  0  0
 10 14  1  0  0  0  0
 11 15  1  0  0  0  0
 12 16  1  0  0  0  0
M  END
>  <CHROM.0>
-58.62893436,-60.94100322,-65.18971654,-42.29107787,-63.22467945,59.37599740
-67.21370021,-58.09367927,-168.30599678

>  <CHROM.1>
171.42848307,70.69726053,163.73014324,-25.35768437,-26.28774263,13.91299740
-16.07835720,2.20597061,-0.17379737,2.86530029

>  <Name>
P49788671

>  <RI>
0

>  <Rbt.Current_Directory>
/home/fstefaniak/projects/zuza/docking/adenine/4TZX

>  <Rbt.Executable>
rbdock ($Id: //depot/dev/client3/rdock/2013.1/src/exe/rbdock.cxx#4 $)

>  <Rbt.Library>
libRbt.so (2013.1, Build901 2013/11/27)

>  <Rbt.Parameter_File>
/home/fstefaniak/progs/rDock//data/scripts/dock_solv.prm

>  <Rbt.Receptor>
4tzx.prm

>  <SCORE>
-37.9977

>  <SCORE.INTER>
-21.2365

>  <SCORE.INTER.CONST>
1

>  <SCORE.INTER.POLAR>
-3.61638

>  <SCORE.INTER.ROT>
0

>  <SCORE.INTER.SOLV>
12.8086

>  <SCORE.INTER.VDW>
-9.97257

>  <SCORE.INTER.norm>
-1.7697

>  <SCORE.INTRA>
3.23362

>  <SCORE.INTRA.DIHEDRAL>
0.6049

>  <SCORE.INTRA.DIHEDRAL.0>
6.94411

>  <SCORE.INTRA.POLAR>
0.890466

>  <SCORE.INTRA.POLAR.0>
-0.890466

>  <SCORE.INTRA.REPUL>
0

>  <SCORE.INTRA.REPUL.0>
0

>  <SCORE.INTRA.SOLV>
0.168591

>  <SCORE.INTRA.SOLV.lig_0>
-17.6825

>  <SCORE.INTRA.VDW>
-0.180714

>  <SCORE.INTRA.VDW.0>
0.0281383

>  <SCORE.INTRA.norm>
0.269468

>  <SCORE.RESTR>
0

>  <SCORE.RESTR.CAVITY>
0

>  <SCORE.RESTR.norm>
0

>  <SCORE.SYSTEM>
-19.9949

>  <SCORE.SYSTEM.CONST>
0

>  <SCORE.SYSTEM.DIHEDRAL>
4.55956

>  <SCORE.SYSTEM.POLAR>
-3.07069

>  <SCORE.SYSTEM.SOLV>
0.0516001

>  <SCORE.SYSTEM.VDW>
-4.63131

>  <SCORE.SYSTEM.norm>
-1.66624

>  <SCORE.heavy>
12

>  <SCORE.norm>
-3.16647

$$$$
P49788671
 OpenBabel12072022113D
libRbt.so/2013.1/901 2013/11/27
 16 16  0  0  0  0  0  0  0  0999 V2000
  -25.2736   14.2316  -16.4990 C   0  0  0  0  0  0  0  0  0  0  0  0
  -24.8768   13.3469  -15.3244 C   0  0  0  0  0  0  0  0  0  0  0  0
  -25.8112   12.2129  -14.8999 C   0  0  0  0  0  0  0  0  0  0  0  0
  -26.4541   11.3422  -15.9904 C   0  0  1  0  0  0  0  0  0  0  0  0
  -27.9206   11.6808  -16.3390 C   0  0  2  0  0  0  0  0  0  0  0  0
  -28.1905   13.0504  -17.0101 C   0  0  1  0  0  0  0  0  0  0  0  0
  -27.8837   14.2866  -16.1230 C   0  0  1  0  0  0  0  0  0  0  0  0
  -26.5656   15.0260  -16.3728 C   0  0  0  0  0  0  0  0  0  0  0  0
  -28.9025   15.2942  -16.3083 O   0  0  0  0  0  0  0  0  0  0  0  0
  -27.5757   13.1424  -18.2973 O   0  0  0  0  0  0  0  0  0  0  0  0
  -28.7844   11.4673  -15.2158 O   0  0  0  0  0  0  0  0  0  0  0  0
  -25.6690   11.3099  -17.1791 O   0  0  0  0  0  0  0  0  0  0  0  0
  -29.7597   14.9262  -16.0353 H   0  0  0  0  0  0  0  0  0  0  0  0
  -26.6746   12.7645  -18.2250 H   0  0  0  0  0  0  0  0  0  0  0  0
  -29.7049   11.6519  -15.4612 H   0  0  0  0  0  0  0  0  0  0  0  0
  -24.8083   10.9143  -16.9475 H   0  0  0  0  0  0  0  0  0  0  0  0
  1  2  1  0  0  0  0
  1  8  1  0  0  0  0
  2  3  1  0  0  0  0
  3  4  1  0  0  0  0
  4  5  1  0  0  0  0
  4 12  1  6  0  0  0
  5 11  1  1  0  0  0
  5  6  1  0  0  0  0
  6 10  1  6  0  0  0
  6  7  1  0  0  0  0
  7  8  1  0  0  0  0
  7  9  1  6  0  0  0
  9 13  1  0  0  0  0
 10 14  1  0  0  0  0
 11 15  1  0  0  0  0
 12 16  1  0  0  0  0
M  END
>  <CHROM.0>
-60.00449760,9.88465612,-174.92918685,-42.85407817,58.96391038,-176.19133475
-179.38417876,-175.50865971,-168.23691687

>  <CHROM.1>
61.72454456,-177.84574099,-43.00781597,61.40573214,-27.02832659,13.02173663
-16.32378730,-0.87065877,-0.09433740,-0.10890412

>  <Name>
P49788671

>  <RI>
0

>  <Rbt.Current_Directory>
/home/fstefaniak/projects/zuza/docking/adenine/4TZX

>  <Rbt.Executable>
rbdock ($Id: //depot/dev/client3/rdock/2013.1/src/exe/rbdock.cxx#4 $)

>  <Rbt.Library>
libRbt.so (2013.1, Build901 2013/11/27)

>  <Rbt.Parameter_File>
/home/fstefaniak/progs/rDock//data/scripts/dock_solv.prm

>  <Rbt.Receptor>
4tzx.prm

>  <SCORE>
-29.9467

>  <SCORE.INTER>
-14.8216

>  <SCORE.INTER.CONST>
1

>  <SCORE.INTER.POLAR>
-1.55653

>  <SCORE.INTER.ROT>
0

>  <SCORE.INTER.SOLV>
9.23447

>  <SCORE.INTER.VDW>
-11.3708

>  <SCORE.INTER.norm>
-1.23514

>  <SCORE.INTRA>
-2.02244

>  <SCORE.INTRA.DIHEDRAL>
-4.32682

>  <SCORE.INTRA.DIHEDRAL.0>
6.94411

>  <SCORE.INTRA.POLAR>
0.0997566

>  <SCORE.INTRA.POLAR.0>
-0.890466

>  <SCORE.INTRA.REPUL>
0

>  <SCORE.INTRA.REPUL.0>
0

>  <SCORE.INTRA.SOLV>
0.0271965

>  <SCORE.INTRA.SOLV.lig_0>
-17.6825

>  <SCORE.INTRA.VDW>
-0.211802

>  <SCORE.INTRA.VDW.0>
0.0281383

>  <SCORE.INTRA.norm>
-0.168537

>  <SCORE.RESTR>
0.932756

>  <SCORE.RESTR.CAVITY>
0.932756

>  <SCORE.RESTR.norm>
0.0777297

>  <SCORE.SYSTEM>
-14.0354

>  <SCORE.SYSTEM.CONST>
0

>  <SCORE.SYSTEM.DIHEDRAL>
10.9171

>  <SCORE.SYSTEM.POLAR>
-2.70038

>  <SCORE.SYSTEM.SOLV>
-0.215295

>  <SCORE.SYSTEM.VDW>
-3.92289

>  <SCORE.SYSTEM.norm>
-1.16961

>  <SCORE.heavy>
12

>  <SCORE.norm>
-2.49556

$$$$
P50742774
 OpenBabel12072022113D
libRbt.so/2013.1/901 2013/11/27
  9  9  0  0  0  0  0  0  0  0999 V2000
  -29.8125   17.4028  -16.7773 C   0  0  0  0  0  0  0  0  0  0  0  0
  -29.5881   16.4902  -15.5842 C   0  0  0  0  0  0  0  0  0  0  0  0
  -29.9703   17.1521  -14.3835 O   0  0  0  0  0  0  0  0  0  0  0  0
  -31.3282   17.5665  -14.4406 C   0  0  0  0  0  0  0  0  0  0  0  0
  -31.5598   18.4865  -15.5000 O   0  0  0  0  0  0  0  0  0  0  0  0
  -31.2582   17.8992  -16.7669 C   0  0  1  0  0  0  0  0  0  0  0  0
  -31.5015   18.9411  -17.8628 C   0  0  0  0  0  0  0  0  0  0  0  0
  -32.8900   19.0871  -18.1405 O   0  0  0  0  0  0  0  0  0  0  0  0
  -32.9749   19.7467  -18.8504 H   0  0  0  0  0  0  0  0  0  0  0  0
  1  2  1  0  0  0  0
  1  6  1  0  0  0  0
  2  3  1  0  0  0  0
  3  4  1  0  0  0  0
  4  5  1  0  0  0  0
  5  6  1  0  0  0  0
  6  7  1  6  0  0  0
  7  8  1  0  0  0  0
  8  9  1  0  0  0  0
M  END
>  <CHROM.0>
-62.30892635,-63.98773924,-66.73330752,-43.14410850,-174.10566976,-61.70712740
-65.38463444,-58.33676361,-168.85402388

>  <CHROM.1>
161.35167825,-179.03603259,-31.02752215,17.91218044,-16.19101686,-0.90256821
0.56969124,-1.40804568

>  <Name>
P50742774

>  <RI>
0

>  <Rbt.Current_Directory>
/home/fstefaniak/projects/zuza/docking/adenine/4TZX

>  <Rbt.Executable>
rbdock ($Id: //depot/dev/client3/rdock/2013.1/src/exe/rbdock.cxx#4 $)

>  <Rbt.Library>
libRbt.so (2013.1, Build901 2013/11/27)

>  <Rbt.Parameter_File>
/home/fstefaniak/progs/rDock//data/scripts/dock_solv.prm

>  <Rbt.Receptor>
4tzx.prm

>  <SCORE>
-49.1204

>  <SCORE.INTER>
-27.6792

>  <SCORE.INTER.CONST>
1

>  <SCORE.INTER.POLAR>
-3.71407

>  <SCORE.INTER.ROT>
1

>  <SCORE.INTER.SOLV>
9.33239

>  <SCORE.INTER.VDW>
-13.45

>  <SCORE.INTER.norm>
-3.4599

>  <SCORE.INTRA>
-0.125764

>  <SCORE.INTRA.DIHEDRAL>
0.0772883

>  <SCORE.INTRA.DIHEDRAL.0>
1.0974

>  <SCORE.INTRA.POLAR>
0

>  <SCORE.INTRA.POLAR.0>
0

>  <SCORE.INTRA.REPUL>
0

>  <SCORE.INTRA.REPUL.0>
0

>  <SCORE.INTRA.SOLV>
0.053464

>  <SCORE.INTRA.SOLV.lig_0>
-9.53581

>  <SCORE.INTRA.VDW>
-0.19114

>  <SCORE.INTRA.VDW.0>
-0.158617

>  <SCORE.INTRA.norm>
-0.0157205

>  <SCORE.RESTR>
0

>  <SCORE.RESTR.CAVITY>
0

>  <SCORE.RESTR.norm>
0

>  <SCORE.SYSTEM>
-21.3154

>  <SCORE.SYSTEM.CONST>
0

>  <SCORE.SYSTEM.DIHEDRAL>
4.56766

>  <SCORE.SYSTEM.POLAR>
-3.03808

>  <SCORE.SYSTEM.SOLV>
-0.00276111

>  <SCORE.SYSTEM.VDW>
-5.60497

>  <SCORE.SYSTEM.norm>
-2.66442

>  <SCORE.heavy>
8

>  <SCORE.norm>
-6.14004

$$$$
P50742774
 OpenBabel12072022113D
libRbt.so/2013.1/901 2013/11/27
  9  9  0  0  0  0  0  0  0  0999 V2000
  -29.8329   17.3850  -16.7666 C   0  0  0  0  0  0  0  0  0  0  0  0
  -29.6067   16.5013  -15.5523 C   0  0  0  0  0  0  0  0  0  0  0  0
  -30.0000   17.1869  -14.3685 O   0  0  0  0  0  0  0  0  0  0  0  0
  -31.3610   17.5885  -14.4411 C   0  0  0  0  0  0  0  0  0  0  0  0
  -31.5950   18.4826  -15.5220 O   0  0  0  0  0  0  0  0  0  0  0  0
  -31.2827   17.8694  -16.7739 C   0  0  1  0  0  0  0  0  0  0  0  0
  -31.5293   18.8845  -17.8941 C   0  0  0  0  0  0  0  0  0  0  0  0
  -32.9059   18.9367  -18.2528 O   0  0  0  0  0  0  0  0  0  0  0  0
  -32.9991   19.6159  -18.9429 H   0  0  0  0  0  0  0  0  0  0  0  0
  1  2  1  0  0  0  0
  1  6  1  0  0  0  0
  2  3  1  0  0  0  0
  3  4  1  0  0  0  0
  4  5  1  0  0  0  0
  5  6  1  0  0  0  0
  6  7  1  6  0  0  0
  7  8  1  0  0  0  0
  8  9  1  0  0  0  0
M  END
>  <CHROM.0>
-60.94767868,-63.38020565,-65.39140306,-43.70276173,-177.98615803,-62.39529808
-66.27477598,-61.69657096,-168.05861518

>  <CHROM.1>
156.81778408,178.16517280,-31.05318716,17.88666931,-16.20748410,-0.91553583
0.55621212,-1.43824975

>  <Name>
P50742774

>  <RI>
0

>  <Rbt.Current_Directory>
/home/fstefaniak/projects/zuza/docking/adenine/4TZX

>  <Rbt.Executable>
rbdock ($Id: //depot/dev/client3/rdock/2013.1/src/exe/rbdock.cxx#4 $)

>  <Rbt.Library>
libRbt.so (2013.1, Build901 2013/11/27)

>  <Rbt.Parameter_File>
/home/fstefaniak/progs/rDock//data/scripts/dock_solv.prm

>  <Rbt.Receptor>
4tzx.prm

>  <SCORE>
-49.1192

>  <SCORE.INTER>
-27.9233

>  <SCORE.INTER.CONST>
1

>  <SCORE.INTER.POLAR>
-3.76315

>  <SCORE.INTER.ROT>
1

>  <SCORE.INTER.SOLV>
9.18418

>  <SCORE.INTER.VDW>
-13.3997

>  <SCORE.INTER.norm>
-3.49041

>  <SCORE.INTRA>
0.148877

>  <SCORE.INTRA.DIHEDRAL>
0.645194

>  <SCORE.INTRA.DIHEDRAL.0>
1.0974

>  <SCORE.INTRA.POLAR>
0

>  <SCORE.INTRA.POLAR.0>
0

>  <SCORE.INTRA.REPUL>
0

>  <SCORE.INTRA.REPUL.0>
0

>  <SCORE.INTRA.SOLV>
0.0340827

>  <SCORE.INTRA.SOLV.lig_0>
-9.53581

>  <SCORE.INTRA.VDW>
-0.190761

>  <SCORE.INTRA.VDW.0>
-0.158617

>  <SCORE.INTRA.norm>
0.0186097

>  <SCORE.RESTR>
0

>  <SCORE.RESTR.CAVITY>
0

>  <SCORE.RESTR.norm>
0

>  <SCORE.SYSTEM>
-21.3448

>  <SCORE.SYSTEM.CONST>
0

>  <SCORE.SYSTEM.DIHEDRAL>
4.37465

>  <SCORE.SYSTEM.POLAR>
-3.03332

>  <SCORE.SYSTEM.SOLV>
-0.00714169

>  <SCORE.SYSTEM.VDW>
-5.5746

>  <SCORE.SYSTEM.norm>
-2.6681

>  <SCORE.heavy>
8

>  <SCORE.norm>
-6.13989

$$$$
P50742774
 OpenBabel12072022113D
libRbt.so/2013.1/901 2013/11/27
  9  9  0  0  0  0  0  0  0  0999 V2000
  -29.8406   17.3074  -16.8220 C   0  0  0  0  0  0  0  0  0  0  0  0
  -29.6132   16.4169  -15.6129 C   0  0  0  0  0  0  0  0  0  0  0  0
  -29.9185   17.1274  -14.4179 O   0  0  0  0  0  0  0  0  0  0  0  0
  -31.2571   17.6036  -14.4365 C   0  0  0  0  0  0  0  0  0  0  0  0
  -31.4862   18.5054  -15.5121 O   0  0  0  0  0  0  0  0  0  0  0  0
  -31.2605   17.8714  -16.7722 C   0  0  1  0  0  0  0  0  0  0  0  0
  -31.4971   18.8946  -17.8872 C   0  0  0  0  0  0  0  0  0  0  0  0
  -32.8859   19.0637  -18.1496 O   0  0  0  0  0  0  0  0  0  0  0  0
  -32.9669   19.7105  -18.8716 H   0  0  0  0  0  0  0  0  0  0  0  0
  1  2  1  0  0  0  0
  1  6  1  0  0  0  0
  2  3  1  0  0  0  0
  3  4  1  0  0  0  0
  4  5  1  0  0  0  0
  5  6  1  0  0  0  0
  6  7  1  6  0  0  0
  7  8  1  0  0  0  0
  8  9  1  0  0  0  0
M  END
>  <CHROM.0>
-59.65361544,-64.07438641,-64.90027919,-43.33511334,-175.80391255,-61.85033823
-67.80227180,-60.22553778,-169.19484234

>  <CHROM.1>
159.30922038,-179.11167946,-31.00753007,17.88370116,-16.21044694,-0.86938515
0.61851080,-1.46052273

>  <Name>
P50742774

>  <RI>
0

>  <Rbt.Current_Directory>
/home/fstefaniak/projects/zuza/docking/adenine/4TZX

>  <Rbt.Executable>
rbdock ($Id: //depot/dev/client3/rdock/2013.1/src/exe/rbdock.cxx#4 $)

>  <Rbt.Library>
libRbt.so (2013.1, Build901 2013/11/27)

>  <Rbt.Parameter_File>
/home/fstefaniak/progs/rDock//data/scripts/dock_solv.prm

>  <Rbt.Receptor>
4tzx.prm

>  <SCORE>
-49.0725

>  <SCORE.INTER>
-27.719

>  <SCORE.INTER.CONST>
1

>  <SCORE.INTER.POLAR>
-3.69169

>  <SCORE.INTER.ROT>
1

>  <SCORE.INTER.SOLV>
9.26912

>  <SCORE.INTER.VDW>
-13.5301

>  <SCORE.INTER.norm>
-3.46488

>  <SCORE.INTRA>
-0.00957757

>  <SCORE.INTRA.DIHEDRAL>
0.318591

>  <SCORE.INTRA.DIHEDRAL.0>
1.0974

>  <SCORE.INTRA.POLAR>
0

>  <SCORE.INTRA.POLAR.0>
0

>  <SCORE.INTRA.REPUL>
0

>  <SCORE.INTRA.REPUL.0>
0

>  <SCORE.INTRA.SOLV>
0.0446398

>  <SCORE.INTRA.SOLV.lig_0>
-9.53581

>  <SCORE.INTRA.VDW>
-0.191193

>  <SCORE.INTRA.VDW.0>
-0.158617

>  <SCORE.INTRA.norm>
-0.0011972

>  <SCORE.RESTR>
0

>  <SCORE.RESTR.CAVITY>
0

>  <SCORE.RESTR.norm>
0

>  <SCORE.SYSTEM>
-21.3439

>  <SCORE.SYSTEM.CONST>
0

>  <SCORE.SYSTEM.DIHEDRAL>
4.44797

>  <SCORE.SYSTEM.POLAR>
-3.04301

>  <SCORE.SYSTEM.SOLV>
-0.00406542

>  <SCORE.SYSTEM.VDW>
-5.56723

>  <SCORE.SYSTEM.norm>
-2.66799

>  <SCORE.heavy>
8

>  <SCORE.norm>
-6.13407

$$$$
P51215067
 OpenBabel12072022113D
libRbt.so/2013.1/901 2013/11/27
 12 12  0  0  0  0  0  0  0  0999 V2000
  -30.1093   17.6618  -18.9130 C   0  0  0  0  0  0  0  0  0  0  0  0
  -29.9732   17.1282  -17.4972 C   0  0  0  0  0  0  0  0  0  0  0  0
  -31.0257   17.9119  -16.7301 C   0  0  2  0  0  0  0  0  0  0  0  0
  -31.0141   19.2570  -17.4185 N   0  3  0  0  0  0  0  0  0  0  0  0
  -31.8868   19.7785  -17.3349 H   0  0  0  0  0  0  0  0  0  0  0  0
  -30.3607   19.7752  -16.7532 H   0  0  0  0  0  0  0  0  0  0  0  0
  -30.3539   19.1489  -18.7311 C   0  0  0  0  0  0  0  0  0  0  0  0
  -30.7311   18.0261  -15.2269 C   0  0  0  0  0  0  0  0  0  0  0  0
  -31.2632   18.9022  -14.5441 O   0  0  0  0  0  0  0  0  0  0  0  0
  -29.8194   17.1399  -14.6772 N   0  0  0  0  0  0  0  0  0  0  0  0
  -28.5509   17.5483  -14.3077 O   0  5  0  0  0  0  0  0  0  0  0  0
  -29.8902   16.1713  -14.9886 H   0  0  0  0  0  0  0  0  0  0  0  0
  1  2  1  0  0  0  0
  1  7  1  0  0  0  0
  2  3  1  0  0  0  0
  3  4  1  0  0  0  0
  3  8  1  1  0  0  0
  4  5  1  0  0  0  0
  4  6  1  0  0  0  0
  4  7  1  0  0  0  0
  8  9  2  0  0  0  0
  8 10  1  0  0  0  0
 10 11  1  0  0  0  0
 10 12  1  0  0  0  0
M  CHG  2   4   1  11  -1
M  END
>  <CHROM.0>
-60.73349610,-65.30032602,-64.05149200,-43.33636438,-59.56134533,-175.83482491
-64.67505988,-60.54773721,-168.66989612

>  <CHROM.1>
160.26954589,106.63592637,-30.30052284,18.09846829,-16.40296437,-1.79401729
-0.78294716,1.57845758

>  <Name>
P51215067

>  <RI>
0

>  <Rbt.Current_Directory>
/home/fstefaniak/projects/zuza/docking/adenine/4TZX

>  <Rbt.Executable>
rbdock ($Id: //depot/dev/client3/rdock/2013.1/src/exe/rbdock.cxx#4 $)

>  <Rbt.Library>
libRbt.so (2013.1, Build901 2013/11/27)

>  <Rbt.Parameter_File>
/home/fstefaniak/progs/rDock//data/scripts/dock_solv.prm

>  <Rbt.Receptor>
4tzx.prm

>  <SCORE>
-51.3788

>  <SCORE.INTER>
-27.0125

>  <SCORE.INTER.CONST>
1

>  <SCORE.INTER.POLAR>
-5.05937

>  <SCORE.INTER.ROT>
2

>  <SCORE.INTER.SOLV>
26.423

>  <SCORE.INTER.VDW>
-14.8848

>  <SCORE.INTER.norm>
-3.00139

>  <SCORE.INTRA>
-3.40102

>  <SCORE.INTRA.DIHEDRAL>
0.222031

>  <SCORE.INTRA.DIHEDRAL.0>
2.34042

>  <SCORE.INTRA.POLAR>
0

>  <SCORE.INTRA.POLAR.0>
0

>  <SCORE.INTRA.REPUL>
0

>  <SCORE.INTRA.REPUL.0>
0

>  <SCORE.INTRA.SOLV>
-7.40665

>  <SCORE.INTRA.SOLV.lig_0>
-47.5859

>  <SCORE.INTRA.VDW>
0.191287

>  <SCORE.INTRA.VDW.0>
-0.549349

>  <SCORE.INTRA.norm>
-0.377891

>  <SCORE.RESTR>
0

>  <SCORE.RESTR.CAVITY>
0

>  <SCORE.RESTR.norm>
0

>  <SCORE.SYSTEM>
-20.9653

>  <SCORE.SYSTEM.CONST>
0

>  <SCORE.SYSTEM.DIHEDRAL>
4.331

>  <SCORE.SYSTEM.POLAR>
-3.04527

>  <SCORE.SYSTEM.SOLV>
0.0699936

>  <SCORE.SYSTEM.VDW>
-5.29293

>  <SCORE.SYSTEM.norm>
-2.32947

>  <SCORE.heavy>
9

>  <SCORE.norm>
-5.70875

$$$$
P51215067
 OpenBabel12072022113D
libRbt.so/2013.1/901 2013/11/27
 12 12  0  0  0  0  0  0  0  0999 V2000
  -30.1267   17.7094  -18.9481 C   0  0  0  0  0  0  0  0  0  0  0  0
  -29.9704   17.1590  -17.5408 C   0  0  0  0  0  0  0  0  0  0  0  0
  -31.0172   17.9278  -16.7512 C   0  0  2  0  0  0  0  0  0  0  0  0
  -31.0209   19.2813  -17.4229 N   0  3  0  0  0  0  0  0  0  0  0  0
  -31.8950   19.7973  -17.3220 H   0  0  0  0  0  0  0  0  0  0  0  0
  -30.3618   19.7946  -16.7593 H   0  0  0  0  0  0  0  0  0  0  0  0
  -30.3765   19.1928  -18.7447 C   0  0  0  0  0  0  0  0  0  0  0  0
  -30.7046   18.0249  -15.2504 C   0  0  0  0  0  0  0  0  0  0  0  0
  -31.2278   18.8936  -14.5514 O   0  0  0  0  0  0  0  0  0  0  0  0
  -29.7871   17.1320  -14.7216 N   0  0  0  0  0  0  0  0  0  0  0  0
  -28.5154   17.5364  -14.3586 O   0  5  0  0  0  0  0  0  0  0  0  0
  -29.8601   16.1678  -15.0456 H   0  0  0  0  0  0  0  0  0  0  0  0
  1  2  1  0  0  0  0
  1  7  1  0  0  0  0
  2  3  1  0  0  0  0
  3  4  1  0  0  0  0
  3  8  1  1  0  0  0
  4  5  1  0  0  0  0
  4  6  1  0  0  0  0
  4  7  1  0  0  0  0
  8  9  2  0  0  0  0
  8 10  1  0  0  0  0
 10 11  1  0  0  0  0
 10 12  1  0  0  0  0
M  CHG  2   4   1  11  -1
M  END
>  <CHROM.0>
-59.57755464,-63.01347135,-71.87239895,-42.94044948,-56.35781211,-60.01784656
-167.63047112,-57.37805806,-169.28507367

>  <CHROM.1>
159.93209941,106.85432767,-30.28960148,18.11265567,-16.42999848,-1.81234277
-0.78214645,1.57865702

>  <Name>
P51215067

>  <RI>
0

>  <Rbt.Current_Directory>
/home/fstefaniak/projects/zuza/docking/adenine/4TZX

>  <Rbt.Executable>
rbdock ($Id: //depot/dev/client3/rdock/2013.1/src/exe/rbdock.cxx#4 $)

>  <Rbt.Library>
libRbt.so (2013.1, Build901 2013/11/27)

>  <Rbt.Parameter_File>
/home/fstefaniak/progs/rDock//data/scripts/dock_solv.prm

>  <Rbt.Receptor>
4tzx.prm

>  <SCORE>
-50.9381

>  <SCORE.INTER>
-27.0071

>  <SCORE.INTER.CONST>
1

>  <SCORE.INTER.POLAR>
-5.00571

>  <SCORE.INTER.ROT>
2

>  <SCORE.INTER.SOLV>
26.3515

>  <SCORE.INTER.VDW>
-15.0362

>  <SCORE.INTER.norm>
-3.00079

>  <SCORE.INTRA>
-3.41818

>  <SCORE.INTRA.DIHEDRAL>
0.209551

>  <SCORE.INTRA.DIHEDRAL.0>
2.34042

>  <SCORE.INTRA.POLAR>
0

>  <SCORE.INTRA.POLAR.0>
0

>  <SCORE.INTRA.REPUL>
0

>  <SCORE.INTRA.REPUL.0>
0

>  <SCORE.INTRA.SOLV>
-7.42292

>  <SCORE.INTRA.SOLV.lig_0>
-47.5859

>  <SCORE.INTRA.VDW>
0.188507

>  <SCORE.INTRA.VDW.0>
-0.549349

>  <SCORE.INTRA.norm>
-0.379798

>  <SCORE.RESTR>
0

>  <SCORE.RESTR.CAVITY>
0

>  <SCORE.RESTR.norm>
0

>  <SCORE.SYSTEM>
-20.5128

>  <SCORE.SYSTEM.CONST>
0

>  <SCORE.SYSTEM.DIHEDRAL>
5.36988

>  <SCORE.SYSTEM.POLAR>
-3.03835

>  <SCORE.SYSTEM.SOLV>
0.168253

>  <SCORE.SYSTEM.VDW>
-5.39342

>  <SCORE.SYSTEM.norm>
-2.2792

>  <SCORE.heavy>
9

>  <SCORE.norm>
-5.65979

$$$$
P51215067
 OpenBabel12072022113D
libRbt.so/2013.1/901 2013/11/27
 12 12  0  0  0  0  0  0  0  0999 V2000
  -30.1102   17.7081  -18.9307 C   0  0  0  0  0  0  0  0  0  0  0  0
  -29.9767   17.1611  -17.5197 C   0  0  0  0  0  0  0  0  0  0  0  0
  -31.0340   17.9339  -16.7482 C   0  0  2  0  0  0  0  0  0  0  0  0
  -31.0245   19.2858  -17.4234 N   0  3  0  0  0  0  0  0  0  0  0  0
  -31.8990   19.8038  -17.3372 H   0  0  0  0  0  0  0  0  0  0  0  0
  -30.3747   19.7994  -16.7509 H   0  0  0  0  0  0  0  0  0  0  0  0
  -30.3599   19.1926  -18.7348 C   0  0  0  0  0  0  0  0  0  0  0  0
  -30.7444   18.0342  -15.2430 C   0  0  0  0  0  0  0  0  0  0  0  0
  -31.2626   18.9168  -14.5579 O   0  0  0  0  0  0  0  0  0  0  0  0
  -29.8527   17.1275  -14.6941 N   0  0  0  0  0  0  0  0  0  0  0  0
  -28.6125   17.5272  -14.2310 O   0  5  0  0  0  0  0  0  0  0  0  0
  -29.8928   16.1777  -15.0634 H   0  0  0  0  0  0  0  0  0  0  0  0
  1  2  1  0  0  0  0
  1  7  1  0  0  0  0
  2  3  1  0  0  0  0
  3  4  1  0  0  0  0
  3  8  1  1  0  0  0
  4  5  1  0  0  0  0
  4  6  1  0  0  0  0
  4  7  1  0  0  0  0
  8  9  2  0  0  0  0
  8 10  1  0  0  0  0
 10 11  1  0  0  0  0
 10 12  1  0  0  0  0
M  CHG  2   4   1  11  -1
M  END
>  <CHROM.0>
-60.84077299,60.11272488,-65.24777599,-42.49614925,-175.70962964,-66.54223302
-66.41373137,-174.73956184,-167.85479768

>  <CHROM.1>
158.95043013,111.18765180,-30.31613857,18.11607046,-16.40617973,-1.79336904
-0.80352939,1.58755571

>  <Name>
P51215067

>  <RI>
0

>  <Rbt.Current_Directory>
/home/fstefaniak/projects/zuza/docking/adenine/4TZX

>  <Rbt.Executable>
rbdock ($Id: //depot/dev/client3/rdock/2013.1/src/exe/rbdock.cxx#4 $)

>  <Rbt.Library>
libRbt.so (2013.1, Build901 2013/11/27)

>  <Rbt.Parameter_File>
/home/fstefaniak/progs/rDock//data/scripts/dock_solv.prm

>  <Rbt.Receptor>
4tzx.prm

>  <SCORE>
-50.7917

>  <SCORE.INTER>
-26.8982

>  <SCORE.INTER.CONST>
1

>  <SCORE.INTER.POLAR>
-5.04376

>  <SCORE.INTER.ROT>
2

>  <SCORE.INTER.SOLV>
26.8197

>  <SCORE.INTER.VDW>
-14.9928

>  <SCORE.INTER.norm>
-2.98868

>  <SCORE.INTRA>
-3.45953

>  <SCORE.INTRA.DIHEDRAL>
0.171414

>  <SCORE.INTRA.DIHEDRAL.0>
2.34042

>  <SCORE.INTRA.POLAR>
0

>  <SCORE.INTRA.POLAR.0>
0

>  <SCORE.INTRA.REPUL>
0

>  <SCORE.INTRA.REPUL.0>
0

>  <SCORE.INTRA.SOLV>
-7.57868

>  <SCORE.INTRA.SOLV.lig_0>
-47.5859

>  <SCORE.INTRA.VDW>
0.2441

>  <SCORE.INTRA.VDW.0>
-0.549349

>  <SCORE.INTRA.norm>
-0.384392

>  <SCORE.RESTR>
0

>  <SCORE.RESTR.CAVITY>
0

>  <SCORE.RESTR.norm>
0

>  <SCORE.SYSTEM>
-20.434

>  <SCORE.SYSTEM.CONST>
0

>  <SCORE.SYSTEM.DIHEDRAL>
4.85554

>  <SCORE.SYSTEM.POLAR>
-3.05422

>  <SCORE.SYSTEM.SOLV>
-0.0805914

>  <SCORE.SYSTEM.VDW>
-5.03359

>  <SCORE.SYSTEM.norm>
-2.27045

>  <SCORE.heavy>
9

>  <SCORE.norm>
-5.64353

$$$$
P51916455
 OpenBabel12072022113D
libRbt.so/2013.1/901 2013/11/27
 14 14  0  0  0  0  0  0  0  0999 V2000
  -31.5190   18.0384  -13.4763 C   0  0  0  0  0  0  0  0  0  0  0  0
  -30.5103   17.8206  -14.5947 C   0  0  2  0  0  0  0  0  0  0  0  0
  -31.1398   18.0949  -15.9701 C   0  0  0  0  0  0  0  0  0  0  0  0
  -30.2266   17.7459  -17.0622 N   0  0  0  0  0  0  0  0  0  0  0  0
  -29.6098   16.4210  -16.9203 C   0  0  0  0  0  0  0  0  0  0  0  0
  -29.0519   16.2065  -15.5107 C   0  0  0  0  0  0  0  0  0  0  0  0
  -30.0480   16.4599  -14.5118 O   0  0  0  0  0  0  0  0  0  0  0  0
  -30.4735   18.3357  -18.2944 C   0  0  0  0  0  0  0  0  0  0  0  0
  -29.8075   18.1060  -19.3035 O   0  0  0  0  0  0  0  0  0  0  0  0
  -31.5464   19.2180  -18.3159 N   0  0  0  0  0  0  0  0  0  0  0  0
  -32.8459   18.6879  -18.5491 N   0  0  0  0  0  0  0  0  0  0  0  0
  -31.4948   19.9742  -17.6400 H   0  0  0  0  0  0  0  0  0  0  0  0
  -32.7127   17.8354  -19.1131 H   0  0  0  0  0  0  0  0  0  0  0  0
  -33.3118   19.3251  -19.2019 H   0  0  0  0  0  0  0  0  0  0  0  0
  2  3  1  0  0  0  0
  2  7  1  0  0  0  0
  2  1  1  1  0  0  0
  3  4  1  0  0  0  0
  4  5  1  0  0  0  0
  4  8  1  0  0  0  0
  5  6  1  0  0  0  0
  6  7  1  0  0  0  0
  8  9  2  0  0  0  0
  8 10  1  0  0  0  0
 10 11  1  0  0  0  0
 10 12  1  0  0  0  0
 11 13  1  0  0  0  0
 11 14  1  0  0  0  0
M  END
>  <CHROM.0>
-60.57361222,58.17222064,-66.84544704,-43.76091487,-53.95161849,-63.38406324
-66.89421497,-59.58535377,-169.01352517

>  <CHROM.1>
-178.10532175,-86.51062911,-27.88277271,-30.64292391,17.74653179,-16.60952708
1.32720580,-0.63179036,1.75789502

>  <Name>
P51916455

>  <RI>
0

>  <Rbt.Current_Directory>
/home/fstefaniak/projects/zuza/docking/adenine/4TZX

>  <Rbt.Executable>
rbdock ($Id: //depot/dev/client3/rdock/2013.1/src/exe/rbdock.cxx#4 $)

>  <Rbt.Library>
libRbt.so (2013.1, Build901 2013/11/27)

>  <Rbt.Parameter_File>
/home/fstefaniak/progs/rDock//data/scripts/dock_solv.prm

>  <Rbt.Receptor>
4tzx.prm

>  <SCORE>
-55.0409

>  <SCORE.INTER>
-34.986

>  <SCORE.INTER.CONST>
1

>  <SCORE.INTER.POLAR>
-4.50318

>  <SCORE.INTER.ROT>
3

>  <SCORE.INTER.SOLV>
15.4756

>  <SCORE.INTER.VDW>
-19.0719

>  <SCORE.INTER.norm>
-3.18054

>  <SCORE.INTRA>
0.292047

>  <SCORE.INTRA.DIHEDRAL>
-0.57271

>  <SCORE.INTRA.DIHEDRAL.0>
2.21107

>  <SCORE.INTRA.POLAR>
0

>  <SCORE.INTRA.POLAR.0>
0

>  <SCORE.INTRA.REPUL>
0

>  <SCORE.INTRA.REPUL.0>
0

>  <SCORE.INTRA.SOLV>
0.302762

>  <SCORE.INTRA.SOLV.lig_0>
-18.6906

>  <SCORE.INTRA.VDW>
0.427021

>  <SCORE.INTRA.VDW.0>
0.76819

>  <SCORE.INTRA.norm>
0.0265498

>  <SCORE.RESTR>
0

>  <SCORE.RESTR.CAVITY>
0

>  <SCORE.RESTR.norm>
0

>  <SCORE.SYSTEM>
-20.347

>  <SCORE.SYSTEM.CONST>
0

>  <SCORE.SYSTEM.DIHEDRAL>
4.50822

>  <SCORE.SYSTEM.POLAR>
-3.04389

>  <SCORE.SYSTEM.SOLV>
0.252743

>  <SCORE.SYSTEM.VDW>
-5.00534

>  <SCORE.SYSTEM.norm>
-1.84973

>  <SCORE.heavy>
11

>  <SCORE.norm>
-5.00372

$$$$
P51916455
 OpenBabel12072022113D
libRbt.so/2013.1/901 2013/11/27
 14 14  0  0  0  0  0  0  0  0999 V2000
  -28.4937   14.8424  -15.9571 C   0  0  0  0  0  0  0  0  0  0  0  0
  -29.7006   15.7674  -16.0183 C   0  0  2  0  0  0  0  0  0  0  0  0
  -29.5355   16.8216  -17.1249 C   0  0  0  0  0  0  0  0  0  0  0  0
  -30.6186   17.8087  -17.0975 N   0  0  0  0  0  0  0  0  0  0  0  0
  -30.8907   18.3551  -15.7621 C   0  0  0  0  0  0  0  0  0  0  0  0
  -30.9914   17.2480  -14.7093 C   0  0  0  0  0  0  0  0  0  0  0  0
  -29.8359   16.4003  -14.7325 O   0  0  0  0  0  0  0  0  0  0  0  0
  -30.8393   18.5254  -18.2659 C   0  0  0  0  0  0  0  0  0  0  0  0
  -30.0572   18.5336  -19.2161 O   0  0  0  0  0  0  0  0  0  0  0  0
  -32.0271   19.2451  -18.2948 N   0  0  0  0  0  0  0  0  0  0  0  0
  -33.2152   18.5629  -18.6785 N   0  0  0  0  0  0  0  0  0  0  0  0
  -32.1335   19.9295  -17.5521 H   0  0  0  0  0  0  0  0  0  0  0  0
  -32.9129   17.7380  -19.2176 H   0  0  0  0  0  0  0  0  0  0  0  0
  -33.6741   19.1444  -19.3859 H   0  0  0  0  0  0  0  0  0  0  0  0
  2  3  1  0  0  0  0
  2  7  1  0  0  0  0
  2  1  1  1  0  0  0
  3  4  1  0  0  0  0
  4  5  1  0  0  0  0
  4  8  1  0  0  0  0
  5  6  1  0  0  0  0
  6  7  1  0  0  0  0
  8  9  2  0  0  0  0
  8 10  1  0  0  0  0
 10 11  1  0  0  0  0
 10 12  1  0  0  0  0
 11 13  1  0  0  0  0
 11 14  1  0  0  0  0
M  END
>  <CHROM.0>
-61.20761793,-65.97776590,-62.58171067,-43.53548682,-177.45190467,-60.92851914
-68.45073938,-63.72592541,-169.03099104

>  <CHROM.1>
-12.28849115,-83.81215661,-21.76650726,-30.58165905,17.47291923,-16.91448886
-0.89531816,0.66178447,-1.27941463

>  <Name>
P51916455

>  <RI>
0

>  <Rbt.Current_Directory>
/home/fstefaniak/projects/zuza/docking/adenine/4TZX

>  <Rbt.Executable>
rbdock ($Id: //depot/dev/client3/rdock/2013.1/src/exe/rbdock.cxx#4 $)

>  <Rbt.Library>
libRbt.so (2013.1, Build901 2013/11/27)

>  <Rbt.Parameter_File>
/home/fstefaniak/progs/rDock//data/scripts/dock_solv.prm

>  <Rbt.Receptor>
4tzx.prm

>  <SCORE>
-53.5697

>  <SCORE.INTER>
-31.5658

>  <SCORE.INTER.CONST>
1

>  <SCORE.INTER.POLAR>
-4.38981

>  <SCORE.INTER.ROT>
3

>  <SCORE.INTER.SOLV>
15.3021

>  <SCORE.INTER.VDW>
-17.1119

>  <SCORE.INTER.norm>
-2.86962

>  <SCORE.INTRA>
-0.687073

>  <SCORE.INTRA.DIHEDRAL>
-0.366227

>  <SCORE.INTRA.DIHEDRAL.0>
2.21107

>  <SCORE.INTRA.POLAR>
0

>  <SCORE.INTRA.POLAR.0>
0

>  <SCORE.INTRA.REPUL>
0

>  <SCORE.INTRA.REPUL.0>
0

>  <SCORE.INTRA.SOLV>
0.111837

>  <SCORE.INTRA.SOLV.lig_0>
-18.6906

>  <SCORE.INTRA.VDW>
-0.559878

>  <SCORE.INTRA.VDW.0>
0.76819

>  <SCORE.INTRA.norm>
-0.0624612

>  <SCORE.RESTR>
0

>  <SCORE.RESTR.CAVITY>
0

>  <SCORE.RESTR.norm>
0

>  <SCORE.SYSTEM>
-21.3168

>  <SCORE.SYSTEM.CONST>
0

>  <SCORE.SYSTEM.DIHEDRAL>
4.50122

>  <SCORE.SYSTEM.POLAR>
-3.03926

>  <SCORE.SYSTEM.SOLV>
-0.0113719

>  <SCORE.SYSTEM.VDW>
-5.57697

>  <SCORE.SYSTEM.norm>
-1.93789

>  <SCORE.heavy>
11

>  <SCORE.norm>
-4.86997

$$$$
P51916455
 OpenBabel12072022113D
libRbt.so/2013.1/901 2013/11/27
 14 14  0  0  0  0  0  0  0  0999 V2000
  -31.5511   18.0080  -13.4872 C   0  0  0  0  0  0  0  0  0  0  0  0
  -30.5270   17.8044  -14.5943 C   0  0  2  0  0  0  0  0  0  0  0  0
  -31.1356   18.1025  -15.9741 C   0  0  0  0  0  0  0  0  0  0  0  0
  -30.2078   17.7678  -17.0582 N   0  0  0  0  0  0  0  0  0  0  0  0
  -29.5974   16.4386  -16.9285 C   0  0  0  0  0  0  0  0  0  0  0  0
  -29.0606   16.1999  -15.5146 C   0  0  0  0  0  0  0  0  0  0  0  0
  -30.0703   16.4410  -14.5263 O   0  0  0  0  0  0  0  0  0  0  0  0
  -30.4350   18.3778  -18.2844 C   0  0  0  0  0  0  0  0  0  0  0  0
  -29.7428   18.1770  -19.2820 O   0  0  0  0  0  0  0  0  0  0  0  0
  -31.5197   19.2452  -18.3139 N   0  0  0  0  0  0  0  0  0  0  0  0
  -32.8129   18.6944  -18.5334 N   0  0  0  0  0  0  0  0  0  0  0  0
  -31.4753   20.0120  -17.6494 H   0  0  0  0  0  0  0  0  0  0  0  0
  -32.6714   17.8392  -19.0913 H   0  0  0  0  0  0  0  0  0  0  0  0
  -33.2927   19.3192  -19.1881 H   0  0  0  0  0  0  0  0  0  0  0  0
  2  3  1  0  0  0  0
  2  7  1  0  0  0  0
  2  1  1  1  0  0  0
  3  4  1  0  0  0  0
  4  5  1  0  0  0  0
  4  8  1  0  0  0  0
  5  6  1  0  0  0  0
  6  7  1  0  0  0  0
  8  9  2  0  0  0  0
  8 10  1  0  0  0  0
 10 11  1  0  0  0  0
 10 12  1  0  0  0  0
 11 13  1  0  0  0  0
 11 14  1  0  0  0  0
M  END
>  <CHROM.0>
-60.94546413,-60.56595766,62.40897410,-42.27999397,-55.29230646,59.45782656
57.07399120,59.80315008,-167.82086822

>  <CHROM.1>
-179.24210569,-84.00923461,-28.28155277,-30.63204263,17.75752891,-16.60841081
1.34887099,-0.62358955,1.78484189

>  <Name>
P51916455

>  <RI>
0

>  <Rbt.Current_Directory>
/home/fstefaniak/projects/zuza/docking/adenine/4TZX

>  <Rbt.Executable>
rbdock ($Id: //depot/dev/client3/rdock/2013.1/src/exe/rbdock.cxx#4 $)

>  <Rbt.Library>
libRbt.so (2013.1, Build901 2013/11/27)

>  <Rbt.Parameter_File>
/home/fstefaniak/progs/rDock//data/scripts/dock_solv.prm

>  <Rbt.Receptor>
4tzx.prm

>  <SCORE>
-51.6901

>  <SCORE.INTER>
-34.8913

>  <SCORE.INTER.CONST>
1

>  <SCORE.INTER.POLAR>
-4.51185

>  <SCORE.INTER.ROT>
3

>  <SCORE.INTER.SOLV>
15.5771

>  <SCORE.INTER.VDW>
-19.0137

>  <SCORE.INTER.norm>
-3.17194

>  <SCORE.INTRA>
0.242012

>  <SCORE.INTRA.DIHEDRAL>
-0.585999

>  <SCORE.INTRA.DIHEDRAL.0>
2.21107

>  <SCORE.INTRA.POLAR>
0

>  <SCORE.INTRA.POLAR.0>
0

>  <SCORE.INTRA.REPUL>
0

>  <SCORE.INTRA.REPUL.0>
0

>  <SCORE.INTRA.SOLV>
0.315639

>  <SCORE.INTRA.SOLV.lig_0>
-18.6906

>  <SCORE.INTRA.VDW>
0.377192

>  <SCORE.INTRA.VDW.0>
0.76819

>  <SCORE.INTRA.norm>
0.0220011

>  <SCORE.RESTR>
0

>  <SCORE.RESTR.CAVITY>
0

>  <SCORE.RESTR.norm>
0

>  <SCORE.SYSTEM>
-17.0408

>  <SCORE.SYSTEM.CONST>
0

>  <SCORE.SYSTEM.DIHEDRAL>
4.34785

>  <SCORE.SYSTEM.POLAR>
-3.05079

>  <SCORE.SYSTEM.SOLV>
-0.224857

>  <SCORE.SYSTEM.VDW>
-2.56552

>  <SCORE.SYSTEM.norm>
-1.54916

>  <SCORE.heavy>
11

>  <SCORE.norm>
-4.6991

$$$$
P51916469
 OpenBabel12072022113D
libRbt.so/2013.1/901 2013/11/27
 17 17  0  0  0  0  0  0  0  0999 V2000
  -24.6348   12.8061  -15.2118 C   0  0  0  0  0  0  0  0  0  0  0  0
  -26.0659   12.7863  -15.7514 C   0  0  2  0  0  0  0  0  0  0  0  0
  -26.1414   11.9490  -17.0382 C   0  0  0  0  0  0  0  0  0  0  0  0
  -27.5650   11.8688  -17.5821 C   0  0  0  0  0  0  0  0  0  0  0  0
  -28.1953   13.2460  -17.7593 C   0  0  0  0  0  0  0  0  0  0  0  0
  -28.1232   14.0684  -16.4673 C   0  0  1  0  0  0  0  0  0  0  0  0
  -26.6675   14.2046  -15.9444 C   0  0  2  0  0  0  0  0  0  0  0  0
  -25.8020   15.1104  -16.8352 C   0  0  0  0  0  0  0  0  0  0  0  0
  -28.7847   15.3522  -16.6569 N   0  0  0  0  0  0  0  0  0  0  0  0
  -29.5607   15.9087  -15.6694 C   0  0  0  0  0  0  0  0  0  0  0  0
  -30.7621   15.7140  -15.5263 O   0  0  0  0  0  0  0  0  0  0  0  0
  -28.8128   16.7387  -14.8422 N   0  0  0  0  0  0  0  0  0  0  0  0
  -29.4403   17.2935  -13.6973 N   0  0  0  0  0  0  0  0  0  0  0  0
  -28.3514   16.0100  -17.2887 H   0  0  0  0  0  0  0  0  0  0  0  0
  -28.1178   17.3161  -15.3076 H   0  0  0  0  0  0  0  0  0  0  0  0
  -29.2961   18.3069  -13.7424 H   0  0  0  0  0  0  0  0  0  0  0  0
  -28.8686   17.0165  -12.8866 H   0  0  0  0  0  0  0  0  0  0  0  0
  2  3  1  0  0  0  0
  2  7  1  0  0  0  0
  2  1  1  6  0  0  0
  3  4  1  0  0  0  0
  4  5  1  0  0  0  0
  5  6  1  0  0  0  0
  6  9  1  6  0  0  0
  6  7  1  0  0  0  0
  7  8  1  6  0  0  0
  9 10  1  0  0  0  0
  9 14  1  0  0  0  0
 10 11  2  0  0  0  0
 10 12  1  0  0  0  0
 12 13  1  0  0  0  0
 12 15  1  0  0  0  0
 13 16  1  0  0  0  0
 13 17  1  0  0  0  0
M  END
>  <CHROM.0>
-60.98366316,-70.12817883,57.66471282,-43.23626305,-167.43483097,-58.61776351
53.85145204,-63.04536195,-168.63723859

>  <CHROM.1>
140.42994181,-89.32760254,-174.23645541,-126.64310352,-27.75250481,14.45225896
-16.04658940,-0.82894728,-0.32755589,0.69189971

>  <Name>
P51916469

>  <RI>
0

>  <Rbt.Current_Directory>
/home/fstefaniak/projects/zuza/docking/adenine/4TZX

>  <Rbt.Executable>
rbdock ($Id: //depot/dev/client3/rdock/2013.1/src/exe/rbdock.cxx#4 $)

>  <Rbt.Library>
libRbt.so (2013.1, Build901 2013/11/27)

>  <Rbt.Parameter_File>
/home/fstefaniak/progs/rDock//data/scripts/dock_solv.prm

>  <Rbt.Receptor>
4tzx.prm

>  <SCORE>
-47.1159

>  <SCORE.INTER>
-27.9599

>  <SCORE.INTER.CONST>
1

>  <SCORE.INTER.POLAR>
-4.29074

>  <SCORE.INTER.ROT>
4

>  <SCORE.INTER.SOLV>
13.6837

>  <SCORE.INTER.VDW>
-15.1654

>  <SCORE.INTER.norm>
-2.15076

>  <SCORE.INTRA>
-0.257281

>  <SCORE.INTRA.DIHEDRAL>
0.651478

>  <SCORE.INTRA.DIHEDRAL.0>
2.54793

>  <SCORE.INTRA.POLAR>
0

>  <SCORE.INTRA.POLAR.0>
0

>  <SCORE.INTRA.REPUL>
0

>  <SCORE.INTRA.REPUL.0>
0

>  <SCORE.INTRA.SOLV>
0.0144829

>  <SCORE.INTRA.SOLV.lig_0>
-15.8758

>  <SCORE.INTRA.VDW>
-0.590262

>  <SCORE.INTRA.VDW.0>
-0.861439

>  <SCORE.INTRA.norm>
-0.0197909

>  <SCORE.RESTR>
0.00967372

>  <SCORE.RESTR.CAVITY>
0.00967372

>  <SCORE.RESTR.norm>
0.000744133

>  <SCORE.SYSTEM>
-18.9084

>  <SCORE.SYSTEM.CONST>
0

>  <SCORE.SYSTEM.DIHEDRAL>
5.38176

>  <SCORE.SYSTEM.POLAR>
-3.00398

>  <SCORE.SYSTEM.SOLV>
-0.117987

>  <SCORE.SYSTEM.VDW>
-4.34693

>  <SCORE.SYSTEM.norm>
-1.45449

>  <SCORE.heavy>
13

>  <SCORE.norm>
-3.6243

$$$$
P51916469
 OpenBabel12072022113D
libRbt.so/2013.1/901 2013/11/27
 17 17  0  0  0  0  0  0  0  0999 V2000
  -24.5156   12.5334  -15.3421 C   0  0  0  0  0  0  0  0  0  0  0  0
  -25.9659   12.6100  -15.8222 C   0  0  2  0  0  0  0  0  0  0  0  0
  -26.1383   11.8252  -17.1325 C   0  0  0  0  0  0  0  0  0  0  0  0
  -27.5846   11.8413  -17.6192 C   0  0  0  0  0  0  0  0  0  0  0  0
  -28.1444   13.2560  -17.7233 C   0  0  0  0  0  0  0  0  0  0  0  0
  -27.9760   14.0260  -16.4082 C   0  0  1  0  0  0  0  0  0  0  0  0
  -26.4955   14.0647  -15.9418 C   0  0  2  0  0  0  0  0  0  0  0  0
  -25.6172   14.9543  -16.8365 C   0  0  0  0  0  0  0  0  0  0  0  0
  -28.5726   15.3495  -16.5264 N   0  0  0  0  0  0  0  0  0  0  0  0
  -29.4019   15.8490  -15.5518 C   0  0  0  0  0  0  0  0  0  0  0  0
  -30.5677   15.5125  -15.3809 O   0  0  0  0  0  0  0  0  0  0  0  0
  -28.7554   16.8026  -14.7739 N   0  0  0  0  0  0  0  0  0  0  0  0
  -29.4274   17.3113  -13.6329 N   0  0  0  0  0  0  0  0  0  0  0  0
  -28.0674   16.0416  -17.0607 H   0  0  0  0  0  0  0  0  0  0  0  0
  -28.1547   17.4499  -15.2772 H   0  0  0  0  0  0  0  0  0  0  0  0
  -29.4995   18.3256  -13.7594 H   0  0  0  0  0  0  0  0  0  0  0  0
  -28.7714   17.2250  -12.8436 H   0  0  0  0  0  0  0  0  0  0  0  0
  2  3  1  0  0  0  0
  2  7  1  0  0  0  0
  2  1  1  6  0  0  0
  3  4  1  0  0  0  0
  4  5  1  0  0  0  0
  5  6  1  0  0  0  0
  6  9  1  6  0  0  0
  6  7  1  0  0  0  0
  7  8  1  6  0  0  0
  9 10  1  0  0  0  0
  9 14  1  0  0  0  0
 10 11  2  0  0  0  0
 10 12  1  0  0  0  0
 12 13  1  0  0  0  0
 12 15  1  0  0  0  0
 13 16  1  0  0  0  0
 13 17  1  0  0  0  0
M  END
>  <CHROM.0>
-67.67561310,-164.71942216,-65.07141637,-43.61265227,-48.44386177,-63.63330040
-65.03202410,-61.22463150,-169.34930958

>  <CHROM.1>
132.96871698,-75.99139425,-173.30503997,-121.47827964,-27.64657807,14.36841148
-16.02348409,-0.86496506,-0.29451053,0.67271687

>  <Name>
P51916469

>  <RI>
0

>  <Rbt.Current_Directory>
/home/fstefaniak/projects/zuza/docking/adenine/4TZX

>  <Rbt.Executable>
rbdock ($Id: //depot/dev/client3/rdock/2013.1/src/exe/rbdock.cxx#4 $)

>  <Rbt.Library>
libRbt.so (2013.1, Build901 2013/11/27)

>  <Rbt.Parameter_File>
/home/fstefaniak/progs/rDock//data/scripts/dock_solv.prm

>  <Rbt.Receptor>
4tzx.prm

>  <SCORE>
-47.0771

>  <SCORE.INTER>
-26.7227

>  <SCORE.INTER.CONST>
1

>  <SCORE.INTER.POLAR>
-4.02254

>  <SCORE.INTER.ROT>
4

>  <SCORE.INTER.SOLV>
13.6307

>  <SCORE.INTER.VDW>
-15.2169

>  <SCORE.INTER.norm>
-2.05559

>  <SCORE.INTRA>
-0.0490481

>  <SCORE.INTRA.DIHEDRAL>
0.842226

>  <SCORE.INTRA.DIHEDRAL.0>
2.54793

>  <SCORE.INTRA.POLAR>
0

>  <SCORE.INTRA.POLAR.0>
0

>  <SCORE.INTRA.REPUL>
0

>  <SCORE.INTRA.REPUL.0>
0

>  <SCORE.INTRA.SOLV>
-0.117174

>  <SCORE.INTRA.SOLV.lig_0>
-15.8758

>  <SCORE.INTRA.VDW>
-0.411574

>  <SCORE.INTRA.VDW.0>
-0.861439

>  <SCORE.INTRA.norm>
-0.00377293

>  <SCORE.RESTR>
0.0208262

>  <SCORE.RESTR.CAVITY>
0.0208262

>  <SCORE.RESTR.norm>
0.00160202

>  <SCORE.SYSTEM>
-20.3262

>  <SCORE.SYSTEM.CONST>
0

>  <SCORE.SYSTEM.DIHEDRAL>
6.05775

>  <SCORE.SYSTEM.POLAR>
-3.01838

>  <SCORE.SYSTEM.SOLV>
0.135852

>  <SCORE.SYSTEM.VDW>
-5.55404

>  <SCORE.SYSTEM.norm>
-1.56355

>  <SCORE.heavy>
13

>  <SCORE.norm>
-3.62131

$$$$
P51916469
 OpenBabel12072022113D
libRbt.so/2013.1/901 2013/11/27
 17 17  0  0  0  0  0  0  0  0999 V2000
  -24.9396   11.3039  -13.7351 C   0  0  0  0  0  0  0  0  0  0  0  0
  -25.9331   12.2042  -14.4713 C   0  0  2  0  0  0  0  0  0  0  0  0
  -26.9885   11.3552  -15.1979 C   0  0  0  0  0  0  0  0  0  0  0  0
  -28.0252   12.2214  -15.9078 C   0  0  0  0  0  0  0  0  0  0  0  0
  -27.3839   13.2498  -16.8334 C   0  0  0  0  0  0  0  0  0  0  0  0
  -26.3404   14.0972  -16.0960 C   0  0  1  0  0  0  0  0  0  0  0  0
  -25.2485   13.2212  -15.4242 C   0  0  2  0  0  0  0  0  0  0  0  0
  -24.3140   12.5545  -16.4466 C   0  0  0  0  0  0  0  0  0  0  0  0
  -25.7922   15.1043  -16.9943 N   0  0  0  0  0  0  0  0  0  0  0  0
  -25.2465   16.2695  -16.5133 C   0  0  0  0  0  0  0  0  0  0  0  0
  -24.3480   16.9014  -17.0565 O   0  0  0  0  0  0  0  0  0  0  0  0
  -25.8372   16.6503  -15.3139 N   0  0  0  0  0  0  0  0  0  0  0  0
  -27.1908   17.0742  -15.3328 N   0  0  0  0  0  0  0  0  0  0  0  0
  -25.4236   14.7872  -17.8793 H   0  0  0  0  0  0  0  0  0  0  0  0
  -25.2239   17.1086  -14.6454 H   0  0  0  0  0  0  0  0  0  0  0  0
  -27.7081   16.3884  -15.8913 H   0  0  0  0  0  0  0  0  0  0  0  0
  -27.2250   17.9200  -15.9195 H   0  0  0  0  0  0  0  0  0  0  0  0
  2  3  1  0  0  0  0
  2  7  1  0  0  0  0
  2  1  1  6  0  0  0
  3  4  1  0  0  0  0
  4  5  1  0  0  0  0
  5  6  1  0  0  0  0
  6  9  1  6  0  0  0
  6  7  1  0  0  0  0
  7  8  1  6  0  0  0
  9 10  1  0  0  0  0
  9 14  1  0  0  0  0
 10 11  2  0  0  0  0
 10 12  1  0  0  0  0
 12 13  1  0  0  0  0
 12 15  1  0  0  0  0
 13 16  1  0  0  0  0
 13 17  1  0  0  0  0
M  END
>  <CHROM.0>
-57.10539900,61.74939463,60.89512480,-43.19844084,59.02423129,59.65808028
-176.09277154,-59.08498133,-169.21460567

>  <CHROM.1>
155.40999422,150.26855333,-68.17604824,46.77613431,-25.95559308,14.06760579
-15.80589493,-1.67058927,-0.02902380,-0.24839483

>  <Name>
P51916469

>  <RI>
0

>  <Rbt.Current_Directory>
/home/fstefaniak/projects/zuza/docking/adenine/4TZX

>  <Rbt.Executable>
rbdock ($Id: //depot/dev/client3/rdock/2013.1/src/exe/rbdock.cxx#4 $)

>  <Rbt.Library>
libRbt.so (2013.1, Build901 2013/11/27)

>  <Rbt.Parameter_File>
/home/fstefaniak/progs/rDock//data/scripts/dock_solv.prm

>  <Rbt.Receptor>
4tzx.prm

>  <SCORE>
-44.5467

>  <SCORE.INTER>
-29.6528

>  <SCORE.INTER.CONST>
1

>  <SCORE.INTER.POLAR>
-4.02644

>  <SCORE.INTER.ROT>
4

>  <SCORE.INTER.SOLV>
12.2084

>  <SCORE.INTER.VDW>
-16.6832

>  <SCORE.INTER.norm>
-2.28099

>  <SCORE.INTRA>
-0.174575

>  <SCORE.INTRA.DIHEDRAL>
-0.876952

>  <SCORE.INTRA.DIHEDRAL.0>
2.54793

>  <SCORE.INTRA.POLAR>
0

>  <SCORE.INTRA.POLAR.0>
0

>  <SCORE.INTRA.REPUL>
0

>  <SCORE.INTRA.REPUL.0>
0

>  <SCORE.INTRA.SOLV>
0.872235

>  <SCORE.INTRA.SOLV.lig_0>
-15.8758

>  <SCORE.INTRA.VDW>
-0.172217

>  <SCORE.INTRA.VDW.0>
-0.861439

>  <SCORE.INTRA.norm>
-0.0134289

>  <SCORE.RESTR>
0.214839

>  <SCORE.RESTR.CAVITY>
0.214839

>  <SCORE.RESTR.norm>
0.0165261

>  <SCORE.SYSTEM>
-14.9341

>  <SCORE.SYSTEM.CONST>
0

>  <SCORE.SYSTEM.DIHEDRAL>
4.04138

>  <SCORE.SYSTEM.POLAR>
-2.5377

>  <SCORE.SYSTEM.SOLV>
-0.228429

>  <SCORE.SYSTEM.VDW>
-2.76804

>  <SCORE.SYSTEM.norm>
-1.14878

>  <SCORE.heavy>
13

>  <SCORE.norm>
-3.42667

$$$$
P52025934
 OpenBabel12072022113D
libRbt.so/2013.1/901 2013/11/27
 18 18  0  0  0  0  0  0  0  0999 V2000
  -29.4173   14.7471  -16.0527 C   0  0  0  0  0  0  0  0  0  0  0  0
  -28.3875   13.8394  -16.3194 C   0  0  0  0  0  0  0  0  0  0  0  0
  -27.0782   14.3080  -16.5055 C   0  0  0  0  0  0  0  0  0  0  0  0
  -26.8067   15.6813  -16.4199 C   0  0  0  0  0  0  0  0  0  0  0  0
  -27.8412   16.5836  -16.1534 C   0  0  0  0  0  0  0  0  0  0  0  0
  -29.1520   16.1224  -15.9786 C   0  0  0  0  0  0  0  0  0  0  0  0
  -30.2838   17.0416  -15.6777 C   0  0  0  0  0  0  0  0  0  0  0  0
  -31.0473   16.7977  -14.7468 O   0  0  0  0  0  0  0  0  0  0  0  0
  -30.4360   18.1417  -16.5128 N   0  0  0  0  0  0  0  0  0  0  0  0
  -31.5331   19.0077  -16.3106 N   0  0  0  0  0  0  0  0  0  0  0  0
  -25.5721   16.2529  -16.5725 O   0  0  0  0  0  0  0  0  0  0  0  0
  -26.0121   13.3408  -16.7801 N   0  3  0  0  0  0  0  0  0  0  0  0
  -26.3160   12.1431  -16.8569 O   0  0  0  0  0  0  0  0  0  0  0  0
  -24.8617   13.7862  -16.9214 O   0  5  0  0  0  0  0  0  0  0  0  0
  -29.9147   18.2252  -17.3826 H   0  0  0  0  0  0  0  0  0  0  0  0
  -32.3624   18.5393  -16.6905 H   0  0  0  0  0  0  0  0  0  0  0  0
  -31.4070   19.8024  -16.9524 H   0  0  0  0  0  0  0  0  0  0  0  0
  -25.6641   17.2134  -16.7529 H   0  0  0  0  0  0  0  0  0  0  0  0
  1  2  2  0  0  0  0
  1  6  1  0  0  0  0
  2  3  1  0  0  0  0
  3  4  2  0  0  0  0
  3 12  1  0  0  0  0
  4  5  1  0  0  0  0
  4 11  1  0  0  0  0
  5  6  2  0  0  0  0
  6  7  1  0  0  0  0
  7  8  2  0  0  0  0
  7  9  1  0  0  0  0
  9 10  1  0  0  0  0
  9 15  1  0  0  0  0
 10 16  1  0  0  0  0
 10 17  1  0  0  0  0
 11 18  1  0  0  0  0
 12 13  2  0  0  0  0
 12 14  1  0  0  0  0
M  CHG  2  12   1  14  -1
M  END
>  <CHROM.0>
-55.46227838,-176.42265921,-64.99803012,-43.01067199,-60.08846551,-178.66044763
-67.31322046,-60.64747878,-168.93128612

>  <CHROM.1>
162.15329204,47.99541182,-76.61719626,-28.16850202,15.58107212,-16.29245702
2.45414383,0.21646173,-0.05746981

>  <Name>
P52025934

>  <RI>
0

>  <Rbt.Current_Directory>
/home/fstefaniak/projects/zuza/docking/adenine/4TZX

>  <Rbt.Executable>
rbdock ($Id: //depot/dev/client3/rdock/2013.1/src/exe/rbdock.cxx#4 $)

>  <Rbt.Library>
libRbt.so (2013.1, Build901 2013/11/27)

>  <Rbt.Parameter_File>
/home/fstefaniak/progs/rDock//data/scripts/dock_solv.prm

>  <Rbt.Receptor>
4tzx.prm

>  <SCORE>
-47.5979

>  <SCORE.INTER>
-29.7126

>  <SCORE.INTER.CONST>
1

>  <SCORE.INTER.POLAR>
-3.10918

>  <SCORE.INTER.ROT>
2

>  <SCORE.INTER.SOLV>
13.6339

>  <SCORE.INTER.VDW>
-18.9225

>  <SCORE.INTER.norm>
-2.12233

>  <SCORE.INTRA>
2.95065

>  <SCORE.INTRA.DIHEDRAL>
5.90655

>  <SCORE.INTRA.DIHEDRAL.0>
2.58036

>  <SCORE.INTRA.POLAR>
0

>  <SCORE.INTRA.POLAR.0>
0

>  <SCORE.INTRA.REPUL>
0

>  <SCORE.INTRA.REPUL.0>
0

>  <SCORE.INTRA.SOLV>
-0.255786

>  <SCORE.INTRA.SOLV.lig_0>
-22.7505

>  <SCORE.INTRA.VDW>
0.125268

>  <SCORE.INTRA.VDW.0>
-0.191695

>  <SCORE.INTRA.norm>
0.210761

>  <SCORE.RESTR>
0

>  <SCORE.RESTR.CAVITY>
0

>  <SCORE.RESTR.norm>
0

>  <SCORE.SYSTEM>
-20.8359

>  <SCORE.SYSTEM.CONST>
0

>  <SCORE.SYSTEM.DIHEDRAL>
4.47989

>  <SCORE.SYSTEM.POLAR>
-3.08525

>  <SCORE.SYSTEM.SOLV>
0.0446269

>  <SCORE.SYSTEM.VDW>
-5.11462

>  <SCORE.SYSTEM.norm>
-1.48828

>  <SCORE.heavy>
14

>  <SCORE.norm>
-3.39985

$$$$
P52025934
 OpenBabel12072022113D
libRbt.so/2013.1/901 2013/11/27
 18 18  0  0  0  0  0  0  0  0999 V2000
  -29.2978   14.7582  -16.1725 C   0  0  0  0  0  0  0  0  0  0  0  0
  -28.2650   13.8552  -16.4439 C   0  0  0  0  0  0  0  0  0  0  0  0
  -26.9410   14.3140  -16.5151 C   0  0  0  0  0  0  0  0  0  0  0  0
  -26.6581   15.6723  -16.3105 C   0  0  0  0  0  0  0  0  0  0  0  0
  -27.6957   16.5699  -16.0400 C   0  0  0  0  0  0  0  0  0  0  0  0
  -29.0204   16.1194  -15.9796 C   0  0  0  0  0  0  0  0  0  0  0  0
  -30.1570   17.0330  -15.6794 C   0  0  0  0  0  0  0  0  0  0  0  0
  -30.9441   16.7638  -14.7755 O   0  0  0  0  0  0  0  0  0  0  0  0
  -30.2853   18.1582  -16.4845 N   0  0  0  0  0  0  0  0  0  0  0  0
  -31.3849   19.0214  -16.2836 N   0  0  0  0  0  0  0  0  0  0  0  0
  -25.4095   16.2325  -16.3452 O   0  0  0  0  0  0  0  0  0  0  0  0
  -25.8722   13.3518  -16.7966 N   0  3  0  0  0  0  0  0  0  0  0  0
  -26.1857   12.1684  -16.9811 O   0  0  0  0  0  0  0  0  0  0  0  0
  -24.7098   13.7868  -16.8346 O   0  5  0  0  0  0  0  0  0  0  0  0
  -29.7422   18.2660  -17.3381 H   0  0  0  0  0  0  0  0  0  0  0  0
  -32.2052   18.5686  -16.7003 H   0  0  0  0  0  0  0  0  0  0  0  0
  -31.2394   19.8358  -16.8959 H   0  0  0  0  0  0  0  0  0  0  0  0
  -24.7242   15.5386  -16.2332 H   0  0  0  0  0  0  0  0  0  0  0  0
  1  2  2  0  0  0  0
  1  6  1  0  0  0  0
  2  3  1  0  0  0  0
  3  4  2  0  0  0  0
  3 12  1  0  0  0  0
  4  5  1  0  0  0  0
  4 11  1  0  0  0  0
  5  6  2  0  0  0  0
  6  7  1  0  0  0  0
  7  8  2  0  0  0  0
  7  9  1  0  0  0  0
  9 10  1  0  0  0  0
  9 15  1  0  0  0  0
 10 16  1  0  0  0  0
 10 17  1  0  0  0  0
 11 18  1  0  0  0  0
 12 13  2  0  0  0  0
 12 14  1  0  0  0  0
M  CHG  2  12   1  14  -1
M  END
>  <CHROM.0>
-60.81735525,-61.57279768,-71.60154699,-43.14650518,-58.05418386,-62.34942984
-169.72648503,-175.80806261,-168.85887180

>  <CHROM.1>
-18.84818067,51.34318000,-76.76973679,-28.02674971,15.57363974,-16.27621138
2.44413798,0.15079214,0.02008033

>  <Name>
P52025934

>  <RI>
0

>  <Rbt.Current_Directory>
/home/fstefaniak/projects/zuza/docking/adenine/4TZX

>  <Rbt.Executable>
rbdock ($Id: //depot/dev/client3/rdock/2013.1/src/exe/rbdock.cxx#4 $)

>  <Rbt.Library>
libRbt.so (2013.1, Build901 2013/11/27)

>  <Rbt.Parameter_File>
/home/fstefaniak/progs/rDock//data/scripts/dock_solv.prm

>  <Rbt.Receptor>
4tzx.prm

>  <SCORE>
-47.3696

>  <SCORE.INTER>
-29.4134

>  <SCORE.INTER.CONST>
1

>  <SCORE.INTER.POLAR>
-3.08546

>  <SCORE.INTER.ROT>
2

>  <SCORE.INTER.SOLV>
13.6987

>  <SCORE.INTER.VDW>
-18.8237

>  <SCORE.INTER.norm>
-2.10096

>  <SCORE.INTRA>
2.62608

>  <SCORE.INTRA.DIHEDRAL>
6.68695

>  <SCORE.INTRA.DIHEDRAL.0>
2.58036

>  <SCORE.INTRA.POLAR>
0

>  <SCORE.INTRA.POLAR.0>
0

>  <SCORE.INTRA.REPUL>
0

>  <SCORE.INTRA.REPUL.0>
0

>  <SCORE.INTRA.SOLV>
-0.240604

>  <SCORE.INTRA.SOLV.lig_0>
-22.7505

>  <SCORE.INTRA.VDW>
-0.597098

>  <SCORE.INTRA.VDW.0>
-0.191695

>  <SCORE.INTRA.norm>
0.187577

>  <SCORE.RESTR>
0

>  <SCORE.RESTR.CAVITY>
0

>  <SCORE.RESTR.norm>
0

>  <SCORE.SYSTEM>
-20.5823

>  <SCORE.SYSTEM.CONST>
0

>  <SCORE.SYSTEM.DIHEDRAL>
5.15016

>  <SCORE.SYSTEM.POLAR>
-3.03124

>  <SCORE.SYSTEM.SOLV>
0.0230319

>  <SCORE.SYSTEM.VDW>
-5.34179

>  <SCORE.SYSTEM.norm>
-1.47016

>  <SCORE.heavy>
14

>  <SCORE.norm>
-3.38355

$$$$
P52025934
 OpenBabel12072022113D
libRbt.so/2013.1/901 2013/11/27
 18 18  0  0  0  0  0  0  0  0999 V2000
  -29.4192   14.7466  -16.0376 C   0  0  0  0  0  0  0  0  0  0  0  0
  -28.3781   13.8541  -16.3119 C   0  0  0  0  0  0  0  0  0  0  0  0
  -27.0805   14.3434  -16.5246 C   0  0  0  0  0  0  0  0  0  0  0  0
  -26.8317   15.7221  -16.4577 C   0  0  0  0  0  0  0  0  0  0  0  0
  -27.8775   16.6090  -16.1834 C   0  0  0  0  0  0  0  0  0  0  0  0
  -29.1769   16.1269  -15.9821 C   0  0  0  0  0  0  0  0  0  0  0  0
  -30.3196   17.0295  -15.6720 C   0  0  0  0  0  0  0  0  0  0  0  0
  -31.0770   16.7698  -14.7403 O   0  0  0  0  0  0  0  0  0  0  0  0
  -30.4886   18.1328  -16.4996 N   0  0  0  0  0  0  0  0  0  0  0  0
  -31.5962   18.9832  -16.2886 N   0  0  0  0  0  0  0  0  0  0  0  0
  -25.6101   16.3134  -16.6368 O   0  0  0  0  0  0  0  0  0  0  0  0
  -26.0022   13.3921  -16.8069 N   0  3  0  0  0  0  0  0  0  0  0  0
  -26.2862   12.1885  -16.8661 O   0  0  0  0  0  0  0  0  0  0  0  0
  -24.8623   13.8559  -16.9719 O   0  5  0  0  0  0  0  0  0  0  0  0
  -29.9711   18.2285  -17.3704 H   0  0  0  0  0  0  0  0  0  0  0  0
  -32.4331   18.4687  -16.5825 H   0  0  0  0  0  0  0  0  0  0  0  0
  -31.5328   19.7337  -16.9899 H   0  0  0  0  0  0  0  0  0  0  0  0
  -25.7213   17.2728  -16.8127 H   0  0  0  0  0  0  0  0  0  0  0  0
  1  2  2  0  0  0  0
  1  6  1  0  0  0  0
  2  3  1  0  0  0  0
  3  4  2  0  0  0  0
  3 12  1  0  0  0  0
  4  5  1  0  0  0  0
  4 11  1  0  0  0  0
  5  6  2  0  0  0  0
  6  7  1  0  0  0  0
  7  8  2  0  0  0  0
  7  9  1  0  0  0  0
  9 10  1  0  0  0  0
  9 15  1  0  0  0  0
 10 16  1  0  0  0  0
 10 17  1  0  0  0  0
 11 18  1  0  0  0  0
 12 13  2  0  0  0  0
 12 14  1  0  0  0  0
M  CHG  2  12   1  14  -1
M  END
>  <CHROM.0>
-57.00426462,-174.57924547,-66.07129556,-42.13763109,-171.91886079,60.09553287
-66.47217285,-173.95543245,-168.78343724

>  <CHROM.1>
162.97139646,46.73062777,-71.05265618,-28.18796648,15.60071722,-16.30509149
2.47181156,0.23236603,-0.07089368

>  <Name>
P52025934

>  <RI>
0

>  <Rbt.Current_Directory>
/home/fstefaniak/projects/zuza/docking/adenine/4TZX

>  <Rbt.Executable>
rbdock ($Id: //depot/dev/client3/rdock/2013.1/src/exe/rbdock.cxx#4 $)

>  <Rbt.Library>
libRbt.so (2013.1, Build901 2013/11/27)

>  <Rbt.Parameter_File>
/home/fstefaniak/progs/rDock//data/scripts/dock_solv.prm

>  <Rbt.Receptor>
4tzx.prm

>  <SCORE>
-46.7248

>  <SCORE.INTER>
-29.556

>  <SCORE.INTER.CONST>
1

>  <SCORE.INTER.POLAR>
-3.17741

>  <SCORE.INTER.ROT>
2

>  <SCORE.INTER.SOLV>
13.8236

>  <SCORE.INTER.VDW>
-18.6538

>  <SCORE.INTER.norm>
-2.11114

>  <SCORE.INTRA>
2.81811

>  <SCORE.INTRA.DIHEDRAL>
5.55504

>  <SCORE.INTRA.DIHEDRAL.0>
2.58036

>  <SCORE.INTRA.POLAR>
0

>  <SCORE.INTRA.POLAR.0>
0

>  <SCORE.INTRA.REPUL>
0

>  <SCORE.INTRA.REPUL.0>
0

>  <SCORE.INTRA.SOLV>
-0.243261

>  <SCORE.INTRA.SOLV.lig_0>
-22.7505

>  <SCORE.INTRA.VDW>
0.162226

>  <SCORE.INTRA.VDW.0>
-0.191695

>  <SCORE.INTRA.norm>
0.201294

>  <SCORE.RESTR>
0

>  <SCORE.RESTR.CAVITY>
0

>  <SCORE.RESTR.norm>
0

>  <SCORE.SYSTEM>
-19.9869

>  <SCORE.SYSTEM.CONST>
0

>  <SCORE.SYSTEM.DIHEDRAL>
5.09493

>  <SCORE.SYSTEM.POLAR>
-3.08202

>  <SCORE.SYSTEM.SOLV>
-0.29016

>  <SCORE.SYSTEM.VDW>
-4.65277

>  <SCORE.SYSTEM.norm>
-1.42763

>  <SCORE.heavy>
14

>  <SCORE.norm>
-3.33748

$$$$
P52893162
 OpenBabel12072022113D
libRbt.so/2013.1/901 2013/11/27
 17 17  0  0  0  0  0  0  0  0999 V2000
  -29.9941   17.8576  -18.1464 C   0  0  0  0  0  0  0  0  0  0  0  0
  -29.8155   17.4809  -16.6675 C   0  0  0  0  0  0  0  0  0  0  0  0
  -31.1273   17.7869  -15.9318 C   0  0  0  0  0  0  0  0  0  0  0  0
  -29.3853   15.9931  -16.5286 C   0  0  1  0  0  0  0  0  0  0  0  0
  -27.8402   15.8513  -16.3815 C   0  0  0  0  0  0  0  0  0  0  0  0
  -27.1907   16.6938  -15.7538 O   0  0  0  0  0  0  0  0  0  0  0  0
  -27.2276   14.7334  -16.9455 N   0  0  0  0  0  0  0  0  0  0  0  0
  -25.7951   14.5402  -16.7427 C   0  0  0  0  0  0  0  0  0  0  0  0
  -25.5501   13.4498  -15.6989 C   0  0  0  0  0  0  0  0  0  0  0  0
  -26.2683   12.1534  -16.0787 C   0  0  0  0  0  0  0  0  0  0  0  0
  -27.7559   12.3926  -16.3640 C   0  0  1  0  0  0  0  0  0  0  0  0
  -27.9335   13.5274  -17.3853 C   0  0  0  0  0  0  0  0  0  0  0  0
  -28.3330   11.1920  -16.8730 O   0  0  0  0  0  0  0  0  0  0  0  0
  -29.9923   15.3536  -15.3385 N   0  0  0  0  0  0  0  0  0  0  0  0
  -28.2543   10.5186  -16.1751 H   0  0  0  0  0  0  0  0  0  0  0  0
  -29.4368   14.5467  -15.0627 H   0  0  0  0  0  0  0  0  0  0  0  0
  -30.9077   14.9889  -15.6089 H   0  0  0  0  0  0  0  0  0  0  0  0
  1  2  1  0  0  0  0
  2  3  1  0  0  0  0
  4  2  1  1  0  0  0
  4  5  1  0  0  0  0
  4 14  1  0  0  0  0
  5  6  2  0  0  0  0
  5  7  1  0  0  0  0
  7  8  1  0  0  0  0
  7 12  1  0  0  0  0
  8  9  1  0  0  0  0
  9 10  1  0  0  0  0
 10 11  1  0  0  0  0
 11 12  1  0  0  0  0
 11 13  1  6  0  0  0
 13 15  1  0  0  0  0
 14 16  1  0  0  0  0
 14 17  1  0  0  0  0
M  END
>  <CHROM.0>
-61.72292505,-67.04931872,-61.93512677,-42.03933307,58.02332796,-63.93076636
-65.22388153,59.60308614,-168.80874657

>  <CHROM.1>
96.47044193,35.81813519,-157.68821624,62.55432539,-28.18553648,14.90013075
-16.47787629,-2.15150525,0.06952742,-3.13321579

>  <Name>
P52893162

>  <RI>
0

>  <Rbt.Current_Directory>
/home/fstefaniak/projects/zuza/docking/adenine/4TZX

>  <Rbt.Executable>
rbdock ($Id: //depot/dev/client3/rdock/2013.1/src/exe/rbdock.cxx#4 $)

>  <Rbt.Library>
libRbt.so (2013.1, Build901 2013/11/27)

>  <Rbt.Parameter_File>
/home/fstefaniak/progs/rDock//data/scripts/dock_solv.prm

>  <Rbt.Receptor>
4tzx.prm

>  <SCORE>
-49.0009

>  <SCORE.INTER>
-32.3844

>  <SCORE.INTER.CONST>
1

>  <SCORE.INTER.POLAR>
-3.0186

>  <SCORE.INTER.ROT>
3

>  <SCORE.INTER.SOLV>
11.2888

>  <SCORE.INTER.VDW>
-20.8905

>  <SCORE.INTER.norm>
-2.31317

>  <SCORE.INTRA>
2.18164

>  <SCORE.INTRA.DIHEDRAL>
4.11432

>  <SCORE.INTRA.DIHEDRAL.0>
1.61973

>  <SCORE.INTRA.POLAR>
0

>  <SCORE.INTRA.POLAR.0>
0

>  <SCORE.INTRA.REPUL>
0

>  <SCORE.INTRA.REPUL.0>
0

>  <SCORE.INTRA.SOLV>
-0.01419

>  <SCORE.INTRA.SOLV.lig_0>
-13.328

>  <SCORE.INTRA.VDW>
0.131573

>  <SCORE.INTRA.VDW.0>
-0.33077

>  <SCORE.INTRA.norm>
0.155831

>  <SCORE.RESTR>
0.50046

>  <SCORE.RESTR.CAVITY>
0.50046

>  <SCORE.RESTR.norm>
0.0357472

>  <SCORE.SYSTEM>
-19.2986

>  <SCORE.SYSTEM.CONST>
0

>  <SCORE.SYSTEM.DIHEDRAL>
4.59314

>  <SCORE.SYSTEM.POLAR>
-3.05912

>  <SCORE.SYSTEM.SOLV>
-0.203959

>  <SCORE.SYSTEM.VDW>
-4.13174

>  <SCORE.SYSTEM.norm>
-1.37847

>  <SCORE.heavy>
14

>  <SCORE.norm>
-3.50006

$$$$
P52893162
 OpenBabel12072022113D
libRbt.so/2013.1/901 2013/11/27
 17 17  0  0  0  0  0  0  0  0999 V2000
  -30.2940   18.1776  -17.6094 C   0  0  0  0  0  0  0  0  0  0  0  0
  -29.8297   17.6419  -16.2462 C   0  0  0  0  0  0  0  0  0  0  0  0
  -30.9542   17.8783  -15.2285 C   0  0  0  0  0  0  0  0  0  0  0  0
  -29.4264   16.1440  -16.3539 C   0  0  1  0  0  0  0  0  0  0  0  0
  -27.8838   15.9529  -16.2399 C   0  0  0  0  0  0  0  0  0  0  0  0
  -27.2108   16.7026  -15.5252 O   0  0  0  0  0  0  0  0  0  0  0  0
  -27.3008   14.8954  -16.9361 N   0  0  0  0  0  0  0  0  0  0  0  0
  -25.8715   14.6493  -16.7715 C   0  0  0  0  0  0  0  0  0  0  0  0
  -25.6432   13.4398  -15.8640 C   0  0  0  0  0  0  0  0  0  0  0  0
  -26.3931   12.2121  -16.3846 C   0  0  0  0  0  0  0  0  0  0  0  0
  -27.8771   12.5147  -16.6252 C   0  0  1  0  0  0  0  0  0  0  0  0
  -28.0368   13.7641  -17.5059 C   0  0  0  0  0  0  0  0  0  0  0  0
  -28.4849   11.3942  -17.2643 O   0  0  0  0  0  0  0  0  0  0  0  0
  -30.0423   15.3296  -15.2809 N   0  0  0  0  0  0  0  0  0  0  0  0
  -28.4014   10.6385  -16.6570 H   0  0  0  0  0  0  0  0  0  0  0  0
  -29.4466   14.5313  -15.0724 H   0  0  0  0  0  0  0  0  0  0  0  0
  -30.9177   14.9443  -15.6406 H   0  0  0  0  0  0  0  0  0  0  0  0
  1  2  1  0  0  0  0
  2  3  1  0  0  0  0
  4  2  1  1  0  0  0
  4  5  1  0  0  0  0
  4 14  1  0  0  0  0
  5  6  2  0  0  0  0
  5  7  1  0  0  0  0
  7  8  1  0  0  0  0
  7 12  1  0  0  0  0
  8  9  1  0  0  0  0
  9 10  1  0  0  0  0
 10 11  1  0  0  0  0
 11 12  1  0  0  0  0
 11 13  1  6  0  0  0
 13 15  1  0  0  0  0
 14 16  1  0  0  0  0
 14 17  1  0  0  0  0
M  END
>  <CHROM.0>
-61.65598841,-174.31313670,-63.79218185,-41.40612439,57.54361882,-62.10564197
-63.26159921,-59.38591210,-168.29258384

>  <CHROM.1>
108.53108107,33.08097197,-151.49165264,61.53338811,-28.26018570,15.01975606
-16.40892177,2.13235990,-0.07181231,0.15386217

>  <Name>
P52893162

>  <RI>
0

>  <Rbt.Current_Directory>
/home/fstefaniak/projects/zuza/docking/adenine/4TZX

>  <Rbt.Executable>
rbdock ($Id: //depot/dev/client3/rdock/2013.1/src/exe/rbdock.cxx#4 $)

>  <Rbt.Library>
libRbt.so (2013.1, Build901 2013/11/27)

>  <Rbt.Parameter_File>
/home/fstefaniak/progs/rDock//data/scripts/dock_solv.prm

>  <Rbt.Receptor>
4tzx.prm

>  <SCORE>
-48.843

>  <SCORE.INTER>
-32.2046

>  <SCORE.INTER.CONST>
1

>  <SCORE.INTER.POLAR>
-3.0938

>  <SCORE.INTER.ROT>
3

>  <SCORE.INTER.SOLV>
11.7024

>  <SCORE.INTER.VDW>
-20.6579

>  <SCORE.INTER.norm>
-2.30033

>  <SCORE.INTRA>
3.22018

>  <SCORE.INTRA.DIHEDRAL>
5.47183

>  <SCORE.INTRA.DIHEDRAL.0>
1.61973

>  <SCORE.INTRA.POLAR>
0

>  <SCORE.INTRA.POLAR.0>
0

>  <SCORE.INTRA.REPUL>
0

>  <SCORE.INTRA.REPUL.0>
0

>  <SCORE.INTRA.SOLV>
0.0254412

>  <SCORE.INTRA.SOLV.lig_0>
-13.328

>  <SCORE.INTRA.VDW>
0.47154

>  <SCORE.INTRA.VDW.0>
-0.33077

>  <SCORE.INTRA.norm>
0.230013

>  <SCORE.RESTR>
0.219318

>  <SCORE.RESTR.CAVITY>
0.219318

>  <SCORE.RESTR.norm>
0.0156656

>  <SCORE.SYSTEM>
-20.078

>  <SCORE.SYSTEM.CONST>
0

>  <SCORE.SYSTEM.DIHEDRAL>
4.58879

>  <SCORE.SYSTEM.POLAR>
-3.06702

>  <SCORE.SYSTEM.SOLV>
-0.0519128

>  <SCORE.SYSTEM.VDW>
-4.67421

>  <SCORE.SYSTEM.norm>
-1.43414

>  <SCORE.heavy>
14

>  <SCORE.norm>
-3.48879

$$$$
P52893162
 OpenBabel12072022113D
libRbt.so/2013.1/901 2013/11/27
 17 17  0  0  0  0  0  0  0  0999 V2000
  -30.0485   17.8603  -18.0587 C   0  0  0  0  0  0  0  0  0  0  0  0
  -29.6568   17.5050  -16.6161 C   0  0  0  0  0  0  0  0  0  0  0  0
  -30.8052   17.9259  -15.6887 C   0  0  0  0  0  0  0  0  0  0  0  0
  -29.3160   15.9924  -16.4969 C   0  0  1  0  0  0  0  0  0  0  0  0
  -27.7903   15.7609  -16.2790 C   0  0  0  0  0  0  0  0  0  0  0  0
  -27.1484   16.4910  -15.5169 O   0  0  0  0  0  0  0  0  0  0  0  0
  -27.1887   14.6903  -16.9384 N   0  0  0  0  0  0  0  0  0  0  0  0
  -25.7808   14.4066  -16.6781 C   0  0  0  0  0  0  0  0  0  0  0  0
  -25.6462   13.1892  -15.7624 C   0  0  0  0  0  0  0  0  0  0  0  0
  -26.3905   11.9829  -16.3381 C   0  0  0  0  0  0  0  0  0  0  0  0
  -27.8463   12.3247  -16.6777 C   0  0  1  0  0  0  0  0  0  0  0  0
  -27.9133   13.5801  -17.5619 C   0  0  0  0  0  0  0  0  0  0  0  0
  -28.4379   11.2220  -17.3616 O   0  0  0  0  0  0  0  0  0  0  0  0
  -30.0157   15.3591  -15.3554 N   0  0  0  0  0  0  0  0  0  0  0  0
  -28.3149   10.4375  -16.7993 H   0  0  0  0  0  0  0  0  0  0  0  0
  -29.5193   14.5162  -15.0746 H   0  0  0  0  0  0  0  0  0  0  0  0
  -30.9348   15.0523  -15.6798 H   0  0  0  0  0  0  0  0  0  0  0  0
  1  2  1  0  0  0  0
  2  3  1  0  0  0  0
  4  2  1  1  0  0  0
  4  5  1  0  0  0  0
  4 14  1  0  0  0  0
  5  6  2  0  0  0  0
  5  7  1  0  0  0  0
  7  8  1  0  0  0  0
  7 12  1  0  0  0  0
  8  9  1  0  0  0  0
  9 10  1  0  0  0  0
 10 11  1  0  0  0  0
 11 12  1  0  0  0  0
 11 13  1  6  0  0  0
 13 15  1  0  0  0  0
 14 16  1  0  0  0  0
 14 17  1  0  0  0  0
M  END
>  <CHROM.0>
-56.52790341,-67.43614545,60.79115005,-43.20822715,-57.69572762,-62.48100745
55.14593525,-59.80664186,-168.78614133

>  <CHROM.1>
109.12087600,41.33708989,-157.65031738,54.53206313,-28.17113789,14.84991385
-16.51669828,2.12304469,-0.19812030,0.16295950

>  <Name>
P52893162

>  <RI>
0

>  <Rbt.Current_Directory>
/home/fstefaniak/projects/zuza/docking/adenine/4TZX

>  <Rbt.Executable>
rbdock ($Id: //depot/dev/client3/rdock/2013.1/src/exe/rbdock.cxx#4 $)

>  <Rbt.Library>
libRbt.so (2013.1, Build901 2013/11/27)

>  <Rbt.Parameter_File>
/home/fstefaniak/progs/rDock//data/scripts/dock_solv.prm

>  <Rbt.Receptor>
4tzx.prm

>  <SCORE>
-48.6091

>  <SCORE.INTER>
-33.1491

>  <SCORE.INTER.CONST>
1

>  <SCORE.INTER.POLAR>
-3.28508

>  <SCORE.INTER.ROT>
3

>  <SCORE.INTER.SOLV>
11.5119

>  <SCORE.INTER.VDW>
-20.5864

>  <SCORE.INTER.norm>
-2.36779

>  <SCORE.INTRA>
3.33849

>  <SCORE.INTRA.DIHEDRAL>
5.60266

>  <SCORE.INTRA.DIHEDRAL.0>
1.61973

>  <SCORE.INTRA.POLAR>
0

>  <SCORE.INTRA.POLAR.0>
0

>  <SCORE.INTRA.REPUL>
0

>  <SCORE.INTRA.REPUL.0>
0

>  <SCORE.INTRA.SOLV>
-0.0597582

>  <SCORE.INTRA.SOLV.lig_0>
-13.328

>  <SCORE.INTRA.VDW>
0.567044

>  <SCORE.INTRA.VDW.0>
-0.33077

>  <SCORE.INTRA.norm>
0.238464

>  <SCORE.RESTR>
0.301633

>  <SCORE.RESTR.CAVITY>
0.301633

>  <SCORE.RESTR.norm>
0.0215452

>  <SCORE.SYSTEM>
-19.1002

>  <SCORE.SYSTEM.CONST>
0

>  <SCORE.SYSTEM.DIHEDRAL>
4.42644

>  <SCORE.SYSTEM.POLAR>
-3.0509

>  <SCORE.SYSTEM.SOLV>
0.0781301

>  <SCORE.SYSTEM.VDW>
-4.0653

>  <SCORE.SYSTEM.norm>
-1.3643

>  <SCORE.heavy>
14

>  <SCORE.norm>
-3.47208

$$$$
P53118001
 OpenBabel12072022113D
libRbt.so/2013.1/901 2013/11/27
 15 15  0  0  0  0  0  0  0  0999 V2000
  -28.1230   15.6721  -16.4200 C   0  0  0  0  0  0  0  0  0  0  0  0
  -29.6117   15.6849  -16.7645 C   0  0  1  0  0  0  0  0  0  0  0  0
  -30.4811   16.1699  -15.5937 C   0  0  0  0  0  0  0  0  0  0  0  0
  -30.4465   17.6254  -15.4199 N   0  0  0  0  0  0  0  0  0  0  0  0
  -30.6045   18.4043  -16.6670 C   0  0  1  0  0  0  0  0  0  0  0  0
  -29.7001   17.8457  -17.7807 C   0  0  0  0  0  0  0  0  0  0  0  0
  -29.8689   16.4359  -17.9632 O   0  0  0  0  0  0  0  0  0  0  0  0
  -32.0718   18.4312  -17.1118 C   0  0  0  0  0  0  0  0  0  0  0  0
  -30.8084   18.1084  -14.1683 C   0  0  0  0  0  0  0  0  0  0  0  0
  -31.7198   18.9158  -13.9882 O   0  0  0  0  0  0  0  0  0  0  0  0
  -30.0570   17.6145  -13.1093 N   0  0  0  0  0  0  0  0  0  0  0  0
  -28.6474   17.8069  -13.1400 N   0  0  0  0  0  0  0  0  0  0  0  0
  -30.4916   17.7028  -12.1958 H   0  0  0  0  0  0  0  0  0  0  0  0
  -28.2903   17.4665  -12.2347 H   0  0  0  0  0  0  0  0  0  0  0  0
  -28.4851   18.8168  -13.0884 H   0  0  0  0  0  0  0  0  0  0  0  0
  2  1  1  1  0  0  0
  2  3  1  0  0  0  0
  2  7  1  0  0  0  0
  3  4  1  0  0  0  0
  4  5  1  0  0  0  0
  4  9  1  0  0  0  0
  5  6  1  0  0  0  0
  5  8  1  6  0  0  0
  6  7  1  0  0  0  0
  9 10  2  0  0  0  0
  9 11  1  0  0  0  0
 11 12  1  0  0  0  0
 11 13  1  0  0  0  0
 12 14  1  0  0  0  0
 12 15  1  0  0  0  0
M  END
>  <CHROM.0>
-57.83664331,-140.14184076,-53.41008889,-43.43702209,-56.57856367,-61.34708645
-64.19012048,-60.60640772,-169.48259022

>  <CHROM.1>
-122.85185066,57.52232065,174.08502167,-30.16607162,17.40153067,-15.64741864
-1.40631833,-0.69059155,1.31658117

>  <Name>
P53118001

>  <RI>
0

>  <Rbt.Current_Directory>
/home/fstefaniak/projects/zuza/docking/adenine/4TZX

>  <Rbt.Executable>
rbdock ($Id: //depot/dev/client3/rdock/2013.1/src/exe/rbdock.cxx#4 $)

>  <Rbt.Library>
libRbt.so (2013.1, Build901 2013/11/27)

>  <Rbt.Parameter_File>
/home/fstefaniak/progs/rDock//data/scripts/dock_solv.prm

>  <Rbt.Receptor>
4tzx.prm

>  <SCORE>
-49.2379

>  <SCORE.INTER>
-29.1833

>  <SCORE.INTER.CONST>
1

>  <SCORE.INTER.POLAR>
-5.02826

>  <SCORE.INTER.ROT>
3

>  <SCORE.INTER.SOLV>
16.0284

>  <SCORE.INTER.VDW>
-13.6374

>  <SCORE.INTER.norm>
-2.43194

>  <SCORE.INTRA>
-1.59917

>  <SCORE.INTRA.DIHEDRAL>
-1.04214

>  <SCORE.INTRA.DIHEDRAL.0>
2.27256

>  <SCORE.INTRA.POLAR>
0

>  <SCORE.INTRA.POLAR.0>
0

>  <SCORE.INTRA.REPUL>
0

>  <SCORE.INTRA.REPUL.0>
0

>  <SCORE.INTRA.SOLV>
0.268214

>  <SCORE.INTRA.SOLV.lig_0>
-17.6506

>  <SCORE.INTRA.VDW>
-1.21221

>  <SCORE.INTRA.VDW.0>
0.232713

>  <SCORE.INTRA.norm>
-0.133264

>  <SCORE.RESTR>
0

>  <SCORE.RESTR.CAVITY>
0

>  <SCORE.RESTR.norm>
0

>  <SCORE.SYSTEM>
-18.4554

>  <SCORE.SYSTEM.CONST>
0

>  <SCORE.SYSTEM.DIHEDRAL>
9.47283

>  <SCORE.SYSTEM.POLAR>
-3.09363

>  <SCORE.SYSTEM.SOLV>
0.180193

>  <SCORE.SYSTEM.VDW>
-5.20918

>  <SCORE.SYSTEM.norm>
-1.53795

>  <SCORE.heavy>
12

>  <SCORE.norm>
-4.10316

$$$$
P53118001
 OpenBabel12072022113D
libRbt.so/2013.1/901 2013/11/27
 15 15  0  0  0  0  0  0  0  0999 V2000
  -28.1545   15.5258  -16.3665 C   0  0  0  0  0  0  0  0  0  0  0  0
  -29.6333   15.5918  -16.7460 C   0  0  1  0  0  0  0  0  0  0  0  0
  -30.5075   16.1414  -15.6078 C   0  0  0  0  0  0  0  0  0  0  0  0
  -30.4156   17.5981  -15.4682 N   0  0  0  0  0  0  0  0  0  0  0  0
  -30.5127   18.3516  -16.7370 C   0  0  1  0  0  0  0  0  0  0  0  0
  -29.6079   17.7284  -17.8155 C   0  0  0  0  0  0  0  0  0  0  0  0
  -29.8317   16.3228  -17.9680 O   0  0  0  0  0  0  0  0  0  0  0  0
  -31.9673   18.4284  -17.2165 C   0  0  0  0  0  0  0  0  0  0  0  0
  -30.7848   18.1268  -14.2373 C   0  0  0  0  0  0  0  0  0  0  0  0
  -31.6713   18.9690  -14.0971 O   0  0  0  0  0  0  0  0  0  0  0  0
  -30.0713   17.6367  -13.1507 N   0  0  0  0  0  0  0  0  0  0  0  0
  -28.6611   17.8267  -13.1336 N   0  0  0  0  0  0  0  0  0  0  0  0
  -30.5369   17.7301  -12.2532 H   0  0  0  0  0  0  0  0  0  0  0  0
  -28.3344   17.4778  -12.2201 H   0  0  0  0  0  0  0  0  0  0  0  0
  -28.4989   18.8358  -13.0680 H   0  0  0  0  0  0  0  0  0  0  0  0
  2  1  1  1  0  0  0
  2  3  1  0  0  0  0
  2  7  1  0  0  0  0
  3  4  1  0  0  0  0
  4  5  1  0  0  0  0
  4  9  1  0  0  0  0
  5  6  1  0  0  0  0
  5  8  1  6  0  0  0
  6  7  1  0  0  0  0
  9 10  2  0  0  0  0
  9 11  1  0  0  0  0
 11 12  1  0  0  0  0
 11 13  1  0  0  0  0
 12 14  1  0  0  0  0
 12 15  1  0  0  0  0
M  END
>  <CHROM.0>
-59.61585253,-63.71924263,60.79891954,-42.71848450,-58.31562530,-175.06362120
55.47431140,-174.99830424,-167.22028179

>  <CHROM.1>
-122.34744341,59.91432748,174.86120982,-30.13994396,17.36309848,-15.68184286
-1.39583817,-0.73370250,1.29512598

>  <Name>
P53118001

>  <RI>
0

>  <Rbt.Current_Directory>
/home/fstefaniak/projects/zuza/docking/adenine/4TZX

>  <Rbt.Executable>
rbdock ($Id: //depot/dev/client3/rdock/2013.1/src/exe/rbdock.cxx#4 $)

>  <Rbt.Library>
libRbt.so (2013.1, Build901 2013/11/27)

>  <Rbt.Parameter_File>
/home/fstefaniak/progs/rDock//data/scripts/dock_solv.prm

>  <Rbt.Receptor>
4tzx.prm

>  <SCORE>
-48.9845

>  <SCORE.INTER>
-28.5069

>  <SCORE.INTER.CONST>
1

>  <SCORE.INTER.POLAR>
-4.44836

>  <SCORE.INTER.ROT>
3

>  <SCORE.INTER.SOLV>
16.1431

>  <SCORE.INTER.VDW>
-15.1578

>  <SCORE.INTER.norm>
-2.37557

>  <SCORE.INTRA>
-1.63041

>  <SCORE.INTRA.DIHEDRAL>
-1.05658

>  <SCORE.INTRA.DIHEDRAL.0>
2.27256

>  <SCORE.INTRA.POLAR>
0

>  <SCORE.INTRA.POLAR.0>
0

>  <SCORE.INTRA.REPUL>
0

>  <SCORE.INTRA.REPUL.0>
0

>  <SCORE.INTRA.SOLV>
0.232543

>  <SCORE.INTRA.SOLV.lig_0>
-17.6506

>  <SCORE.INTRA.VDW>
-1.21839

>  <SCORE.INTRA.VDW.0>
0.232713

>  <SCORE.INTRA.norm>
-0.135867

>  <SCORE.RESTR>
0

>  <SCORE.RESTR.CAVITY>
0

>  <SCORE.RESTR.norm>
0

>  <SCORE.SYSTEM>
-18.8472

>  <SCORE.SYSTEM.CONST>
0

>  <SCORE.SYSTEM.DIHEDRAL>
4.5738

>  <SCORE.SYSTEM.POLAR>
-3.03505

>  <SCORE.SYSTEM.SOLV>
-0.172827

>  <SCORE.SYSTEM.VDW>
-3.91495

>  <SCORE.SYSTEM.norm>
-1.5706

>  <SCORE.heavy>
12

>  <SCORE.norm>
-4.08204

$$$$
P53118001
 OpenBabel12072022113D
libRbt.so/2013.1/901 2013/11/27
 15 15  0  0  0  0  0  0  0  0999 V2000
  -28.1101   15.7696  -16.4002 C   0  0  0  0  0  0  0  0  0  0  0  0
  -29.5939   15.7555  -16.7653 C   0  0  1  0  0  0  0  0  0  0  0  0
  -30.4905   16.1898  -15.5951 C   0  0  0  0  0  0  0  0  0  0  0  0
  -30.4936   17.6408  -15.3846 N   0  0  0  0  0  0  0  0  0  0  0  0
  -30.6536   18.4470  -16.6140 C   0  0  1  0  0  0  0  0  0  0  0  0
  -29.7210   17.9386  -17.7284 C   0  0  0  0  0  0  0  0  0  0  0  0
  -29.8530   16.5302  -17.9483 O   0  0  0  0  0  0  0  0  0  0  0  0
  -32.1150   18.4501  -17.0785 C   0  0  0  0  0  0  0  0  0  0  0  0
  -30.8839   18.0833  -14.1265 C   0  0  0  0  0  0  0  0  0  0  0  0
  -31.8258   18.8529  -13.9381 O   0  0  0  0  0  0  0  0  0  0  0  0
  -30.1243   17.5943  -13.0710 N   0  0  0  0  0  0  0  0  0  0  0  0
  -28.7223   17.8373  -13.0849 N   0  0  0  0  0  0  0  0  0  0  0  0
  -30.5694   17.6480  -12.1600 H   0  0  0  0  0  0  0  0  0  0  0  0
  -28.3653   17.5168  -12.1723 H   0  0  0  0  0  0  0  0  0  0  0  0
  -28.5971   18.8527  -13.0393 H   0  0  0  0  0  0  0  0  0  0  0  0
  2  1  1  1  0  0  0
  2  3  1  0  0  0  0
  2  7  1  0  0  0  0
  3  4  1  0  0  0  0
  4  5  1  0  0  0  0
  4  9  1  0  0  0  0
  5  6  1  0  0  0  0
  5  8  1  6  0  0  0
  6  7  1  0  0  0  0
  9 10  2  0  0  0  0
  9 11  1  0  0  0  0
 11 12  1  0  0  0  0
 11 13  1  0  0  0  0
 12 14  1  0  0  0  0
 12 15  1  0  0  0  0
M  END
>  <CHROM.0>
-61.99419589,-145.60096343,-71.84100384,-44.02913533,-63.73297006,-176.11515923
-170.28323145,-62.47419067,-168.70941512

>  <CHROM.1>
-122.06334169,57.45495342,172.43030380,-30.20389591,17.43268677,-15.61461678
-1.38241493,-0.66615171,1.35260749

>  <Name>
P53118001

>  <RI>
0

>  <Rbt.Current_Directory>
/home/fstefaniak/projects/zuza/docking/adenine/4TZX

>  <Rbt.Executable>
rbdock ($Id: //depot/dev/client3/rdock/2013.1/src/exe/rbdock.cxx#4 $)

>  <Rbt.Library>
libRbt.so (2013.1, Build901 2013/11/27)

>  <Rbt.Parameter_File>
/home/fstefaniak/progs/rDock//data/scripts/dock_solv.prm

>  <Rbt.Receptor>
4tzx.prm

>  <SCORE>
-48.9102

>  <SCORE.INTER>
-28.8889

>  <SCORE.INTER.CONST>
1

>  <SCORE.INTER.POLAR>
-5.05974

>  <SCORE.INTER.ROT>
3

>  <SCORE.INTER.SOLV>
16.0126

>  <SCORE.INTER.VDW>
-13.331

>  <SCORE.INTER.norm>
-2.40741

>  <SCORE.INTRA>
-1.59204

>  <SCORE.INTRA.DIHEDRAL>
-1.00813

>  <SCORE.INTRA.DIHEDRAL.0>
2.27256

>  <SCORE.INTRA.POLAR>
0

>  <SCORE.INTRA.POLAR.0>
0

>  <SCORE.INTRA.REPUL>
0

>  <SCORE.INTRA.REPUL.0>
0

>  <SCORE.INTRA.SOLV>
0.267267

>  <SCORE.INTRA.SOLV.lig_0>
-17.6506

>  <SCORE.INTRA.VDW>
-1.22161

>  <SCORE.INTRA.VDW.0>
0.232713

>  <SCORE.INTRA.norm>
-0.13267

>  <SCORE.RESTR>
0

>  <SCORE.RESTR.CAVITY>
0

>  <SCORE.RESTR.norm>
0

>  <SCORE.SYSTEM>
-18.4293

>  <SCORE.SYSTEM.CONST>
0

>  <SCORE.SYSTEM.DIHEDRAL>
9.38725

>  <SCORE.SYSTEM.POLAR>
-3.00013

>  <SCORE.SYSTEM.SOLV>
-0.0186786

>  <SCORE.SYSTEM.VDW>
-5.4086

>  <SCORE.SYSTEM.norm>
-1.53577

>  <SCORE.heavy>
12

>  <SCORE.norm>
-4.07585

$$$$
P53484841
 OpenBabel12072022113D
libRbt.so/2013.1/901 2013/11/27
 18 18  0  0  0  0  0  0  0  0999 V2000
  -29.9502   15.9244  -15.4254 C   0  0  0  0  0  0  0  0  0  0  0  0
  -31.0929   16.7284  -15.3338 C   0  0  0  0  0  0  0  0  0  0  0  0
  -31.2847   17.7642  -16.2458 C   0  0  0  0  0  0  0  0  0  0  0  0
  -30.3213   17.9900  -17.2305 C   0  0  0  0  0  0  0  0  0  0  0  0
  -29.1777   17.1869  -17.3432 C   0  0  0  0  0  0  0  0  0  0  0  0
  -28.9995   16.1383  -16.4366 C   0  0  0  0  0  0  0  0  0  0  0  0
  -27.8059   15.2517  -16.4814 C   0  0  0  0  0  0  0  0  0  0  0  0
  -27.9185   14.0507  -16.2522 O   0  0  0  0  0  0  0  0  0  0  0  0
  -26.6001   15.8518  -16.8236 N   0  0  0  0  0  0  0  0  0  0  0  0
  -25.4523   15.0413  -16.9662 N   0  0  0  0  0  0  0  0  0  0  0  0
  -30.4786   19.0791  -18.1740 N   0  3  0  0  0  0  0  0  0  0  0  0
  -30.5345   20.2294  -17.7206 O   0  0  0  0  0  0  0  0  0  0  0  0
  -30.4587   18.7766  -19.3761 O   0  5  0  0  0  0  0  0  0  0  0  0
  -32.4140   18.5242  -16.1821 O   0  0  0  0  0  0  0  0  0  0  0  0
  -26.5716   16.7893  -17.2194 H   0  0  0  0  0  0  0  0  0  0  0  0
  -24.6998   15.4921  -16.4266 H   0  0  0  0  0  0  0  0  0  0  0  0
  -25.1293   15.1332  -17.9345 H   0  0  0  0  0  0  0  0  0  0  0  0
  -32.5160   19.0438  -16.9985 H   0  0  0  0  0  0  0  0  0  0  0  0
  1  2  2  0  0  0  0
  1  6  1  0  0  0  0
  2  3  1  0  0  0  0
  3  4  2  0  0  0  0
  3 14  1  0  0  0  0
  4  5  1  0  0  0  0
  4 11  1  0  0  0  0
  5  6  2  0  0  0  0
  6  7  1  0  0  0  0
  7  8  2  0  0  0  0
  7  9  1  0  0  0  0
  9 10  1  0  0  0  0
  9 15  1  0  0  0  0
 10 16  1  0  0  0  0
 10 17  1  0  0  0  0
 11 12  2  0  0  0  0
 11 13  1  0  0  0  0
 14 18  1  0  0  0  0
M  CHG  2  11   1  13  -1
M  END
>  <CHROM.0>
-58.39273224,-61.51896010,-66.63500089,-43.24172869,-175.34678052,-61.50975981
-67.03302203,-59.30510864,-168.63548427

>  <CHROM.1>
-165.68018675,39.79938825,-131.38247443,-29.43809033,17.08093045,-16.90650083
0.63598861,-0.42833558,2.42027358

>  <Name>
P53484841

>  <RI>
0

>  <Rbt.Current_Directory>
/home/fstefaniak/projects/zuza/docking/adenine/4TZX

>  <Rbt.Executable>
rbdock ($Id: //depot/dev/client3/rdock/2013.1/src/exe/rbdock.cxx#4 $)

>  <Rbt.Library>
libRbt.so (2013.1, Build901 2013/11/27)

>  <Rbt.Parameter_File>
/home/fstefaniak/progs/rDock//data/scripts/dock_solv.prm

>  <Rbt.Receptor>
4tzx.prm

>  <SCORE>
-51.4094

>  <SCORE.INTER>
-30.6249

>  <SCORE.INTER.CONST>
1

>  <SCORE.INTER.POLAR>
-3.31544

>  <SCORE.INTER.ROT>
2

>  <SCORE.INTER.SOLV>
16.8289

>  <SCORE.INTER.VDW>
-19.9081

>  <SCORE.INTER.norm>
-2.1875

>  <SCORE.INTRA>
0.514724

>  <SCORE.INTRA.DIHEDRAL>
2.46592

>  <SCORE.INTRA.DIHEDRAL.0>
3.15569

>  <SCORE.INTRA.POLAR>
0

>  <SCORE.INTRA.POLAR.0>
0

>  <SCORE.INTRA.REPUL>
0

>  <SCORE.INTRA.REPUL.0>
0

>  <SCORE.INTRA.SOLV>
-0.187237

>  <SCORE.INTRA.SOLV.lig_0>
-22.6992

>  <SCORE.INTRA.VDW>
-0.624618

>  <SCORE.INTRA.VDW.0>
0.169747

>  <SCORE.INTRA.norm>
0.036766

>  <SCORE.RESTR>
0

>  <SCORE.RESTR.CAVITY>
0

>  <SCORE.RESTR.norm>
0

>  <SCORE.SYSTEM>
-21.2991

>  <SCORE.SYSTEM.CONST>
0

>  <SCORE.SYSTEM.DIHEDRAL>
4.51082

>  <SCORE.SYSTEM.POLAR>
-3.05527

>  <SCORE.SYSTEM.SOLV>
0.00147402

>  <SCORE.SYSTEM.VDW>
-5.5193

>  <SCORE.SYSTEM.norm>
-1.52137

>  <SCORE.heavy>
14

>  <SCORE.norm>
-3.6721

$$$$
P53484841
 OpenBabel12072022113D
libRbt.so/2013.1/901 2013/11/27
 18 18  0  0  0  0  0  0  0  0999 V2000
  -29.8091   15.6365  -15.4726 C   0  0  0  0  0  0  0  0  0  0  0  0
  -31.0015   16.3658  -15.3892 C   0  0  0  0  0  0  0  0  0  0  0  0
  -31.2065   17.4551  -16.2334 C   0  0  0  0  0  0  0  0  0  0  0  0
  -30.2074   17.8085  -17.1419 C   0  0  0  0  0  0  0  0  0  0  0  0
  -29.0130   17.0818  -17.2462 C   0  0  0  0  0  0  0  0  0  0  0  0
  -28.8204   15.9794  -16.4091 C   0  0  0  0  0  0  0  0  0  0  0  0
  -27.5748   15.1673  -16.4489 C   0  0  0  0  0  0  0  0  0  0  0  0
  -27.6133   13.9635  -16.2098 O   0  0  0  0  0  0  0  0  0  0  0  0
  -26.4085   15.8373  -16.7982 N   0  0  0  0  0  0  0  0  0  0  0  0
  -25.2134   15.0975  -16.9364 N   0  0  0  0  0  0  0  0  0  0  0  0
  -30.3795   18.9552  -18.0117 N   0  3  0  0  0  0  0  0  0  0  0  0
  -30.5288   20.0630  -17.4803 O   0  0  0  0  0  0  0  0  0  0  0  0
  -30.2772   18.7460  -19.2294 O   0  5  0  0  0  0  0  0  0  0  0  0
  -32.3814   18.1434  -16.1802 O   0  0  0  0  0  0  0  0  0  0  0  0
  -26.4380   16.7715  -17.2016 H   0  0  0  0  0  0  0  0  0  0  0  0
  -24.4737   15.6341  -16.4614 H   0  0  0  0  0  0  0  0  0  0  0  0
  -24.9356   15.1433  -17.9218 H   0  0  0  0  0  0  0  0  0  0  0  0
  -33.1216   17.5331  -16.0175 H   0  0  0  0  0  0  0  0  0  0  0  0
  1  2  2  0  0  0  0
  1  6  1  0  0  0  0
  2  3  1  0  0  0  0
  3  4  2  0  0  0  0
  3 14  1  0  0  0  0
  4  5  1  0  0  0  0
  4 11  1  0  0  0  0
  5  6  2  0  0  0  0
  6  7  1  0  0  0  0
  7  8  2  0  0  0  0
  7  9  1  0  0  0  0
  9 10  1  0  0  0  0
  9 15  1  0  0  0  0
 10 16  1  0  0  0  0
 10 17  1  0  0  0  0
 11 12  2  0  0  0  0
 11 13  1  0  0  0  0
 14 18  1  0  0  0  0
M  CHG  2  11   1  13  -1
M  END
>  <CHROM.0>
-56.51270472,-59.87209074,-65.65390924,-43.05890901,-173.85221279,-58.36088764
-65.78865581,-54.77839396,-168.57299664

>  <CHROM.1>
-36.75771001,34.05828720,-135.53434590,-29.29519474,16.91951385,-16.84162419
0.61361788,-0.36215522,2.48382635

>  <Name>
P53484841

>  <RI>
0

>  <Rbt.Current_Directory>
/home/fstefaniak/projects/zuza/docking/adenine/4TZX

>  <Rbt.Executable>
rbdock ($Id: //depot/dev/client3/rdock/2013.1/src/exe/rbdock.cxx#4 $)

>  <Rbt.Library>
libRbt.so (2013.1, Build901 2013/11/27)

>  <Rbt.Parameter_File>
/home/fstefaniak/progs/rDock//data/scripts/dock_solv.prm

>  <Rbt.Receptor>
4tzx.prm

>  <SCORE>
-51.3759

>  <SCORE.INTER>
-31.0867

>  <SCORE.INTER.CONST>
1

>  <SCORE.INTER.POLAR>
-4.20147

>  <SCORE.INTER.ROT>
2

>  <SCORE.INTER.SOLV>
16.7951

>  <SCORE.INTER.VDW>
-17.2513

>  <SCORE.INTER.norm>
-2.22048

>  <SCORE.INTRA>
0.859172

>  <SCORE.INTRA.DIHEDRAL>
2.79945

>  <SCORE.INTRA.DIHEDRAL.0>
3.15569

>  <SCORE.INTRA.POLAR>
0

>  <SCORE.INTRA.POLAR.0>
0

>  <SCORE.INTRA.REPUL>
0

>  <SCORE.INTRA.REPUL.0>
0

>  <SCORE.INTRA.SOLV>
-0.19332

>  <SCORE.INTRA.SOLV.lig_0>
-22.6992

>  <SCORE.INTRA.VDW>
-0.443894

>  <SCORE.INTRA.VDW.0>
0.169747

>  <SCORE.INTRA.norm>
0.0613694

>  <SCORE.RESTR>
0

>  <SCORE.RESTR.CAVITY>
0

>  <SCORE.RESTR.norm>
0

>  <SCORE.SYSTEM>
-21.1484

>  <SCORE.SYSTEM.CONST>
0

>  <SCORE.SYSTEM.DIHEDRAL>
4.6446

>  <SCORE.SYSTEM.POLAR>
-3.08972

>  <SCORE.SYSTEM.SOLV>
0.0225258

>  <SCORE.SYSTEM.VDW>
-5.35556

>  <SCORE.SYSTEM.norm>
-1.5106

>  <SCORE.heavy>
14

>  <SCORE.norm>
-3.66971

$$$$
P53484841
 OpenBabel12072022113D
libRbt.so/2013.1/901 2013/11/27
 18 18  0  0  0  0  0  0  0  0999 V2000
  -28.9816   14.5198  -16.1315 C   0  0  0  0  0  0  0  0  0  0  0  0
  -27.7871   13.8383  -16.3950 C   0  0  0  0  0  0  0  0  0  0  0  0
  -26.5959   14.5512  -16.5139 C   0  0  0  0  0  0  0  0  0  0  0  0
  -26.6190   15.9407  -16.3807 C   0  0  0  0  0  0  0  0  0  0  0  0
  -27.8043   16.6368  -16.1052 C   0  0  0  0  0  0  0  0  0  0  0  0
  -28.9931   15.9147  -15.9694 C   0  0  0  0  0  0  0  0  0  0  0  0
  -30.2935   16.5817  -15.6920 C   0  0  0  0  0  0  0  0  0  0  0  0
  -30.9647   16.2484  -14.7193 O   0  0  0  0  0  0  0  0  0  0  0  0
  -30.6667   17.5989  -16.5622 N   0  0  0  0  0  0  0  0  0  0  0  0
  -31.8488   18.3241  -16.2950 N   0  0  0  0  0  0  0  0  0  0  0  0
  -25.4008   16.7118  -16.5297 N   0  3  0  0  0  0  0  0  0  0  0  0
  -24.8118   16.6526  -17.6166 O   0  0  0  0  0  0  0  0  0  0  0  0
  -25.0889   17.4424  -15.5778 O   0  5  0  0  0  0  0  0  0  0  0  0
  -25.4263   13.8871  -16.7329 O   0  0  0  0  0  0  0  0  0  0  0  0
  -30.0013   18.0010  -17.2193 H   0  0  0  0  0  0  0  0  0  0  0  0
  -32.6045   17.6330  -16.1854 H   0  0  0  0  0  0  0  0  0  0  0  0
  -32.1089   18.8163  -17.1555 H   0  0  0  0  0  0  0  0  0  0  0  0
  -24.6711   14.4383  -16.4634 H   0  0  0  0  0  0  0  0  0  0  0  0
  1  2  2  0  0  0  0
  1  6  1  0  0  0  0
  2  3  1  0  0  0  0
  3  4  2  0  0  0  0
  3 14  1  0  0  0  0
  4  5  1  0  0  0  0
  4 11  1  0  0  0  0
  5  6  2  0  0  0  0
  6  7  1  0  0  0  0
  7  8  2  0  0  0  0
  7  9  1  0  0  0  0
  9 10  1  0  0  0  0
  9 15  1  0  0  0  0
 10 16  1  0  0  0  0
 10 17  1  0  0  0  0
 11 12  2  0  0  0  0
 11 13  1  0  0  0  0
 14 18  1  0  0  0  0
M  CHG  2  11   1  13  -1
M  END
>  <CHROM.0>
-58.26473268,-58.96353014,-68.63246977,-43.33710715,59.05936843,-176.67713426
-67.91046116,-57.19107008,-169.00167284

>  <CHROM.1>
-158.60889535,57.14744860,-53.35827384,-27.92114735,16.11291064,-16.24205023
2.89757797,0.14690545,-0.04034176

>  <Name>
P53484841

>  <RI>
0

>  <Rbt.Current_Directory>
/home/fstefaniak/projects/zuza/docking/adenine/4TZX

>  <Rbt.Executable>
rbdock ($Id: //depot/dev/client3/rdock/2013.1/src/exe/rbdock.cxx#4 $)

>  <Rbt.Library>
libRbt.so (2013.1, Build901 2013/11/27)

>  <Rbt.Parameter_File>
/home/fstefaniak/progs/rDock//data/scripts/dock_solv.prm

>  <Rbt.Receptor>
4tzx.prm

>  <SCORE>
-51.3627

>  <SCORE.INTER>
-33.7529

>  <SCORE.INTER.CONST>
1

>  <SCORE.INTER.POLAR>
-3.739

>  <SCORE.INTER.ROT>
2

>  <SCORE.INTER.SOLV>
14.0007

>  <SCORE.INTER.VDW>
-19.6389

>  <SCORE.INTER.norm>
-2.41092

>  <SCORE.INTRA>
2.49637

>  <SCORE.INTRA.DIHEDRAL>
6.7943

>  <SCORE.INTRA.DIHEDRAL.0>
3.15569

>  <SCORE.INTRA.POLAR>
0

>  <SCORE.INTRA.POLAR.0>
0

>  <SCORE.INTRA.REPUL>
0

>  <SCORE.INTRA.REPUL.0>
0

>  <SCORE.INTRA.SOLV>
-0.151645

>  <SCORE.INTRA.SOLV.lig_0>
-22.6992

>  <SCORE.INTRA.VDW>
-0.824957

>  <SCORE.INTRA.VDW.0>
0.169747

>  <SCORE.INTRA.norm>
0.178312

>  <SCORE.RESTR>
0

>  <SCORE.RESTR.CAVITY>
0

>  <SCORE.RESTR.norm>
0

>  <SCORE.SYSTEM>
-20.1062

>  <SCORE.SYSTEM.CONST>
0

>  <SCORE.SYSTEM.DIHEDRAL>
4.63195

>  <SCORE.SYSTEM.POLAR>
-3.05435

>  <SCORE.SYSTEM.SOLV>
-0.149217

>  <SCORE.SYSTEM.VDW>
-4.7172

>  <SCORE.SYSTEM.norm>
-1.43615

>  <SCORE.heavy>
14

>  <SCORE.norm>
-3.66877

$$$$
P53731179
 OpenBabel12072022113D
libRbt.so/2013.1/901 2013/11/27
 15 15  0  0  0  0  0  0  0  0999 V2000
  -27.7817   11.2538  -18.5800 C   0  0  0  0  0  0  0  0  0  0  0  0
  -27.4139   11.9331  -17.2687 C   0  0  0  0  0  0  0  0  0  0  0  0
  -27.2926   13.4644  -17.3759 C   0  0  2  0  0  0  0  0  0  0  0  0
  -25.9274   13.9764  -16.8938 C   0  0  0  0  0  0  0  0  0  0  0  0
  -25.8786   15.5003  -16.9324 C   0  0  0  0  0  0  0  0  0  0  0  0
  -27.0198   16.1134  -16.1328 C   0  0  0  0  0  0  0  0  0  0  0  0
  -28.3181   15.5916  -16.5486 N   0  0  0  0  0  0  0  0  0  0  0  0
  -28.4275   14.1299  -16.5778 C   0  0  0  0  0  0  0  0  0  0  0  0
  -29.4169   16.4087  -16.2831 C   0  0  0  0  0  0  0  0  0  0  0  0
  -29.6142   17.4912  -16.8350 O   0  0  0  0  0  0  0  0  0  0  0  0
  -30.3019   15.9061  -15.3365 N   0  0  0  0  0  0  0  0  0  0  0  0
  -30.8136   16.8013  -14.3555 N   0  0  0  0  0  0  0  0  0  0  0  0
  -30.9594   15.2190  -15.6945 H   0  0  0  0  0  0  0  0  0  0  0  0
  -31.5886   17.3091  -14.8073 H   0  0  0  0  0  0  0  0  0  0  0  0
  -30.1064   17.5304  -14.2249 H   0  0  0  0  0  0  0  0  0  0  0  0
  1  2  1  0  0  0  0
  3  4  1  0  0  0  0
  3  8  1  0  0  0  0
  3  2  1  1  0  0  0
  4  5  1  0  0  0  0
  5  6  1  0  0  0  0
  6  7  1  0  0  0  0
  7  8  1  0  0  0  0
  7  9  1  0  0  0  0
  9 10  2  0  0  0  0
  9 11  1  0  0  0  0
 11 12  1  0  0  0  0
 11 13  1  0  0  0  0
 12 14  1  0  0  0  0
 12 15  1  0  0  0  0
M  END
>  <CHROM.0>
-59.45528407,-62.59262666,60.51068863,-42.75273511,-60.99443609,-177.14571717
55.27678229,-61.97730391,-168.09411841

>  <CHROM.1>
-124.63324809,67.41713113,136.97041826,81.26200797,-28.23582472,14.91137092
-16.57754161,0.99875121,-0.23419938,-2.82696535

>  <Name>
P53731179

>  <RI>
0

>  <Rbt.Current_Directory>
/home/fstefaniak/projects/zuza/docking/adenine/4TZX

>  <Rbt.Executable>
rbdock ($Id: //depot/dev/client3/rdock/2013.1/src/exe/rbdock.cxx#4 $)

>  <Rbt.Library>
libRbt.so (2013.1, Build901 2013/11/27)

>  <Rbt.Parameter_File>
/home/fstefaniak/progs/rDock//data/scripts/dock_solv.prm

>  <Rbt.Receptor>
4tzx.prm

>  <SCORE>
-46.0908

>  <SCORE.INTER>
-27.8803

>  <SCORE.INTER.CONST>
1

>  <SCORE.INTER.POLAR>
-3.12657

>  <SCORE.INTER.ROT>
4

>  <SCORE.INTER.SOLV>
12.831

>  <SCORE.INTER.VDW>
-18.7086

>  <SCORE.INTER.norm>
-2.32336

>  <SCORE.INTRA>
0.738391

>  <SCORE.INTRA.DIHEDRAL>
5.39415

>  <SCORE.INTRA.DIHEDRAL.0>
2.27848

>  <SCORE.INTRA.POLAR>
0

>  <SCORE.INTRA.POLAR.0>
0

>  <SCORE.INTRA.REPUL>
0

>  <SCORE.INTRA.REPUL.0>
0

>  <SCORE.INTRA.SOLV>
0.094697

>  <SCORE.INTRA.SOLV.lig_0>
-15.8719

>  <SCORE.INTRA.VDW>
-2.00603

>  <SCORE.INTRA.VDW.0>
1.37703

>  <SCORE.INTRA.norm>
0.0615326

>  <SCORE.RESTR>
0

>  <SCORE.RESTR.CAVITY>
0

>  <SCORE.RESTR.norm>
0

>  <SCORE.SYSTEM>
-18.9488

>  <SCORE.SYSTEM.CONST>
0

>  <SCORE.SYSTEM.DIHEDRAL>
4.27409

>  <SCORE.SYSTEM.POLAR>
-3.03149

>  <SCORE.SYSTEM.SOLV>
-0.045845

>  <SCORE.SYSTEM.VDW>
-3.937

>  <SCORE.SYSTEM.norm>
-1.57907

>  <SCORE.heavy>
12

>  <SCORE.norm>
-3.8409

$$$$
P53731179
 OpenBabel12072022113D
libRbt.so/2013.1/901 2013/11/27
 15 15  0  0  0  0  0  0  0  0999 V2000
  -27.5740   11.3822  -18.2168 C   0  0  0  0  0  0  0  0  0  0  0  0
  -27.3636   12.1088  -16.8962 C   0  0  0  0  0  0  0  0  0  0  0  0
  -27.0917   13.6162  -17.0538 C   0  0  2  0  0  0  0  0  0  0  0  0
  -25.6669   13.9995  -16.6279 C   0  0  0  0  0  0  0  0  0  0  0  0
  -25.4657   15.5088  -16.7147 C   0  0  0  0  0  0  0  0  0  0  0  0
  -26.5127   16.2568  -15.9011 C   0  0  0  0  0  0  0  0  0  0  0  0
  -27.8698   15.8588  -16.2623 N   0  0  0  0  0  0  0  0  0  0  0  0
  -28.1272   14.4156  -16.2434 C   0  0  0  0  0  0  0  0  0  0  0  0
  -28.8712   16.7906  -15.9897 C   0  0  0  0  0  0  0  0  0  0  0  0
  -29.3142   17.5825  -16.8216 O   0  0  0  0  0  0  0  0  0  0  0  0
  -29.3551   16.7622  -14.6871 N   0  0  0  0  0  0  0  0  0  0  0  0
  -28.6676   17.5229  -13.7001 N   0  0  0  0  0  0  0  0  0  0  0  0
  -30.3685   16.7526  -14.6121 H   0  0  0  0  0  0  0  0  0  0  0  0
  -28.7831   17.0118  -12.8124 H   0  0  0  0  0  0  0  0  0  0  0  0
  -29.2171   18.3737  -13.5485 H   0  0  0  0  0  0  0  0  0  0  0  0
  1  2  1  0  0  0  0
  3  4  1  0  0  0  0
  3  8  1  0  0  0  0
  3  2  1  1  0  0  0
  4  5  1  0  0  0  0
  5  6  1  0  0  0  0
  6  7  1  0  0  0  0
  7  8  1  0  0  0  0
  7  9  1  0  0  0  0
  9 10  2  0  0  0  0
  9 11  1  0  0  0  0
 11 12  1  0  0  0  0
 11 13  1  0  0  0  0
 12 14  1  0  0  0  0
 12 15  1  0  0  0  0
M  END
>  <CHROM.0>
-63.44424982,85.14707180,-70.03494198,-43.01337382,-57.35837316,-60.90771913
-167.39365461,-58.27861993,-168.42261972

>  <CHROM.1>
-113.31350748,96.40861878,86.29695774,-148.85662257,-27.69573371,15.18478660
-16.23059877,1.22323283,-0.06158239,-2.71094254

>  <Name>
P53731179

>  <RI>
0

>  <Rbt.Current_Directory>
/home/fstefaniak/projects/zuza/docking/adenine/4TZX

>  <Rbt.Executable>
rbdock ($Id: //depot/dev/client3/rdock/2013.1/src/exe/rbdock.cxx#4 $)

>  <Rbt.Library>
libRbt.so (2013.1, Build901 2013/11/27)

>  <Rbt.Parameter_File>
/home/fstefaniak/progs/rDock//data/scripts/dock_solv.prm

>  <Rbt.Receptor>
4tzx.prm

>  <SCORE>
-45.9616

>  <SCORE.INTER>
-28.2321

>  <SCORE.INTER.CONST>
1

>  <SCORE.INTER.POLAR>
-4.47834

>  <SCORE.INTER.ROT>
4

>  <SCORE.INTER.SOLV>
12.2645

>  <SCORE.INTER.VDW>
-14.2484

>  <SCORE.INTER.norm>
-2.35267

>  <SCORE.INTRA>
0.0651903

>  <SCORE.INTRA.DIHEDRAL>
5.59946

>  <SCORE.INTRA.DIHEDRAL.0>
2.27848

>  <SCORE.INTRA.POLAR>
0

>  <SCORE.INTRA.POLAR.0>
0

>  <SCORE.INTRA.REPUL>
0

>  <SCORE.INTRA.REPUL.0>
0

>  <SCORE.INTRA.SOLV>
0.0478088

>  <SCORE.INTRA.SOLV.lig_0>
-15.8719

>  <SCORE.INTRA.VDW>
-2.75844

>  <SCORE.INTRA.VDW.0>
1.37703

>  <SCORE.INTRA.norm>
0.00543252

>  <SCORE.RESTR>
0.0102159

>  <SCORE.RESTR.CAVITY>
0.0102159

>  <SCORE.RESTR.norm>
0.000851325

>  <SCORE.SYSTEM>
-17.8049

>  <SCORE.SYSTEM.CONST>
0

>  <SCORE.SYSTEM.DIHEDRAL>
7.89841

>  <SCORE.SYSTEM.POLAR>
-3.02903

>  <SCORE.SYSTEM.SOLV>
0.166192

>  <SCORE.SYSTEM.VDW>
-4.46138

>  <SCORE.SYSTEM.norm>
-1.48374

>  <SCORE.heavy>
12

>  <SCORE.norm>
-3.83013

$$$$
P53731179
 OpenBabel12072022113D
libRbt.so/2013.1/901 2013/11/27
 15 15  0  0  0  0  0  0  0  0999 V2000
  -27.8886   11.0988  -18.5471 C   0  0  0  0  0  0  0  0  0  0  0  0
  -26.9138   11.5863  -17.4849 C   0  0  0  0  0  0  0  0  0  0  0  0
  -26.7381   13.1157  -17.4590 C   0  0  2  0  0  0  0  0  0  0  0  0
  -25.3848   13.5374  -16.8681 C   0  0  0  0  0  0  0  0  0  0  0  0
  -25.2852   15.0566  -16.7783 C   0  0  0  0  0  0  0  0  0  0  0  0
  -26.4471   15.6440  -15.9892 C   0  0  0  0  0  0  0  0  0  0  0  0
  -27.7375   15.2049  -16.5115 N   0  0  0  0  0  0  0  0  0  0  0  0
  -27.8919   13.7553  -16.6667 C   0  0  0  0  0  0  0  0  0  0  0  0
  -28.8221   16.0371  -16.2350 C   0  0  0  0  0  0  0  0  0  0  0  0
  -29.0587   17.0791  -16.8462 O   0  0  0  0  0  0  0  0  0  0  0  0
  -29.6447   15.5995  -15.2035 N   0  0  0  0  0  0  0  0  0  0  0  0
  -30.9184   16.2167  -15.0544 N   0  0  0  0  0  0  0  0  0  0  0  0
  -29.6157   14.5979  -15.0349 H   0  0  0  0  0  0  0  0  0  0  0  0
  -31.4849   15.9022  -15.8561 H   0  0  0  0  0  0  0  0  0  0  0  0
  -30.7862   17.2144  -15.2438 H   0  0  0  0  0  0  0  0  0  0  0  0
  1  2  1  0  0  0  0
  3  4  1  0  0  0  0
  3  8  1  0  0  0  0
  3  2  1  1  0  0  0
  4  5  1  0  0  0  0
  5  6  1  0  0  0  0
  6  7  1  0  0  0  0
  7  8  1  0  0  0  0
  7  9  1  0  0  0  0
  9 10  2  0  0  0  0
  9 11  1  0  0  0  0
 11 12  1  0  0  0  0
 11 13  1  0  0  0  0
 12 14  1  0  0  0  0
 12 15  1  0  0  0  0
M  END
>  <CHROM.0>
-63.06433445,67.38984312,-71.92643676,-43.04354440,-174.56784382,-69.29199780
-171.04918735,-61.80580431,-168.85913173

>  <CHROM.1>
-155.09222818,78.41694441,-166.26596860,70.21474174,-27.78743994,14.51853401
-16.62868399,0.96036579,-0.11045521,-2.77789611

>  <Name>
P53731179

>  <RI>
0

>  <Rbt.Current_Directory>
/home/fstefaniak/projects/zuza/docking/adenine/4TZX

>  <Rbt.Executable>
rbdock ($Id: //depot/dev/client3/rdock/2013.1/src/exe/rbdock.cxx#4 $)

>  <Rbt.Library>
libRbt.so (2013.1, Build901 2013/11/27)

>  <Rbt.Parameter_File>
/home/fstefaniak/progs/rDock//data/scripts/dock_solv.prm

>  <Rbt.Receptor>
4tzx.prm

>  <SCORE>
-45.898

>  <SCORE.INTER>
-25.4323

>  <SCORE.INTER.CONST>
1

>  <SCORE.INTER.POLAR>
-4.15681

>  <SCORE.INTER.ROT>
4

>  <SCORE.INTER.SOLV>
12.8686

>  <SCORE.INTER.VDW>
-13.655

>  <SCORE.INTER.norm>
-2.11935

>  <SCORE.INTRA>
-0.834612

>  <SCORE.INTRA.DIHEDRAL>
1.21051

>  <SCORE.INTRA.DIHEDRAL.0>
2.27848

>  <SCORE.INTRA.POLAR>
0

>  <SCORE.INTRA.POLAR.0>
0

>  <SCORE.INTRA.REPUL>
0

>  <SCORE.INTRA.REPUL.0>
0

>  <SCORE.INTRA.SOLV>
0.0534712

>  <SCORE.INTRA.SOLV.lig_0>
-15.8719

>  <SCORE.INTRA.VDW>
-1.4666

>  <SCORE.INTRA.VDW.0>
1.37703

>  <SCORE.INTRA.norm>
-0.069551

>  <SCORE.RESTR>
0

>  <SCORE.RESTR.CAVITY>
0

>  <SCORE.RESTR.norm>
0

>  <SCORE.SYSTEM>
-19.6311

>  <SCORE.SYSTEM.CONST>
0

>  <SCORE.SYSTEM.DIHEDRAL>
5.78745

>  <SCORE.SYSTEM.POLAR>
-3.01675

>  <SCORE.SYSTEM.SOLV>
-0.024884

>  <SCORE.SYSTEM.VDW>
-4.95243

>  <SCORE.SYSTEM.norm>
-1.63593

>  <SCORE.heavy>
12

>  <SCORE.norm>
-3.82483

$$$$
P53888216
 OpenBabel12072022113D
libRbt.so/2013.1/901 2013/11/27
 12 12  0  0  0  0  0  0  0  0999 V2000
  -27.9170   14.1508  -16.0088 C   0  0  0  0  0  0  0  0  0  0  0  0
  -28.0981   15.4175  -16.6424 O   0  0  0  0  0  0  0  0  0  0  0  0
  -29.1931   16.0947  -16.2124 C   0  0  0  0  0  0  0  0  0  0  0  0
  -29.7476   15.9271  -15.1361 O   0  0  0  0  0  0  0  0  0  0  0  0
  -29.5768   16.9803  -17.1780 N   0  0  0  0  0  0  0  0  0  0  0  0
  -30.7539   17.7780  -17.0861 C   0  0  1  0  0  0  0  0  0  0  0  0
  -30.6835   19.2786  -17.1550 C   0  0  0  0  0  0  0  0  0  0  0  0
  -31.2818   18.5136  -18.2955 C   0  0  2  0  0  0  0  0  0  0  0  0
  -32.7210   18.5748  -18.5427 N   0  0  0  0  0  0  0  0  0  0  0  0
  -29.0576   16.9414  -18.0441 H   0  0  0  0  0  0  0  0  0  0  0  0
  -33.0423   17.7232  -19.0032 H   0  0  0  0  0  0  0  0  0  0  0  0
  -32.9613   19.3386  -19.1745 H   0  0  0  0  0  0  0  0  0  0  0  0
  1  2  1  0  0  0  0
  2  3  1  0  0  0  0
  3  4  2  0  0  0  0
  3  5  1  0  0  0  0
  5 10  1  0  0  0  0
  6  5  1  6  0  0  0
  6  7  1  0  0  0  0
  6  8  1  0  0  0  0
  7  8  1  0  0  0  0
  8  9  1  1  0  0  0
  9 11  1  0  0  0  0
  9 12  1  0  0  0  0
M  END
>  <CHROM.0>
-61.30871914,64.74426489,-69.92940301,-43.26734831,178.88818573,-60.88814566
-67.49754163,-172.10755417,-168.17907906

>  <CHROM.1>
22.98872319,122.32122815,-82.14564172,-29.98385293,16.92629572,-16.92025460
-0.34210272,0.84580217,-1.63609920

>  <Name>
P53888216

>  <RI>
0

>  <Rbt.Current_Directory>
/home/fstefaniak/projects/zuza/docking/adenine/4TZX

>  <Rbt.Executable>
rbdock ($Id: //depot/dev/client3/rdock/2013.1/src/exe/rbdock.cxx#4 $)

>  <Rbt.Library>
libRbt.so (2013.1, Build901 2013/11/27)

>  <Rbt.Parameter_File>
/home/fstefaniak/progs/rDock//data/scripts/dock_solv.prm

>  <Rbt.Receptor>
4tzx.prm

>  <SCORE>
-53.28

>  <SCORE.INTER>
-34.3692

>  <SCORE.INTER.CONST>
1

>  <SCORE.INTER.POLAR>
-5.34643

>  <SCORE.INTER.ROT>
3

>  <SCORE.INTER.SOLV>
10.9282

>  <SCORE.INTER.VDW>
-14.3341

>  <SCORE.INTER.norm>
-3.8188

>  <SCORE.INTRA>
1.31757

>  <SCORE.INTRA.DIHEDRAL>
3.74981

>  <SCORE.INTRA.DIHEDRAL.0>
2.37912

>  <SCORE.INTRA.POLAR>
0

>  <SCORE.INTRA.POLAR.0>
0

>  <SCORE.INTRA.REPUL>
0

>  <SCORE.INTRA.REPUL.0>
0

>  <SCORE.INTRA.SOLV>
-0.092481

>  <SCORE.INTRA.SOLV.lig_0>
-13.6375

>  <SCORE.INTRA.VDW>
-0.5111

>  <SCORE.INTRA.VDW.0>
1.24314

>  <SCORE.INTRA.norm>
0.146396

>  <SCORE.RESTR>
0

>  <SCORE.RESTR.CAVITY>
0

>  <SCORE.RESTR.norm>
0

>  <SCORE.SYSTEM>
-20.2284

>  <SCORE.SYSTEM.CONST>
0

>  <SCORE.SYSTEM.DIHEDRAL>
5.09364

>  <SCORE.SYSTEM.POLAR>
-3.03071

>  <SCORE.SYSTEM.SOLV>
-0.100428

>  <SCORE.SYSTEM.VDW>
-5.04763

>  <SCORE.SYSTEM.norm>
-2.2476

>  <SCORE.heavy>
9

>  <SCORE.norm>
-5.92

$$$$
P53888216
 OpenBabel12072022113D
libRbt.so/2013.1/901 2013/11/27
 12 12  0  0  0  0  0  0  0  0999 V2000
  -27.9997   14.1486  -16.0306 C   0  0  0  0  0  0  0  0  0  0  0  0
  -28.1548   15.4207  -16.6603 O   0  0  0  0  0  0  0  0  0  0  0  0
  -29.2464   16.1107  -16.2421 C   0  0  0  0  0  0  0  0  0  0  0  0
  -29.8463   15.9135  -15.1956 O   0  0  0  0  0  0  0  0  0  0  0  0
  -29.5680   17.0476  -17.1815 N   0  0  0  0  0  0  0  0  0  0  0  0
  -30.7252   17.8749  -17.0986 C   0  0  1  0  0  0  0  0  0  0  0  0
  -30.6308   19.3646  -17.2813 C   0  0  0  0  0  0  0  0  0  0  0  0
  -31.2927   18.5311  -18.3354 C   0  0  2  0  0  0  0  0  0  0  0  0
  -32.7401   18.6047  -18.5247 N   0  0  0  0  0  0  0  0  0  0  0  0
  -29.0171   17.0307  -18.0285 H   0  0  0  0  0  0  0  0  0  0  0  0
  -33.0917   17.7422  -18.9407 H   0  0  0  0  0  0  0  0  0  0  0  0
  -32.9966   19.3492  -19.1728 H   0  0  0  0  0  0  0  0  0  0  0  0
  1  2  1  0  0  0  0
  2  3  1  0  0  0  0
  3  4  2  0  0  0  0
  3  5  1  0  0  0  0
  5 10  1  0  0  0  0
  6  5  1  6  0  0  0
  6  7  1  0  0  0  0
  6  8  1  0  0  0  0
  7  8  1  0  0  0  0
  8  9  1  1  0  0  0
  9 11  1  0  0  0  0
  9 12  1  0  0  0  0
M  END
>  <CHROM.0>
-60.13521494,63.97875812,-46.82747484,-43.49318725,-174.98995635,-63.28079685
-67.91846815,-176.44112837,-169.77021631

>  <CHROM.1>
20.25459428,130.50965532,-84.36206214,-30.01142773,16.95832565,-16.95169593
-0.66730699,0.68030805,-1.17583171

>  <Name>
P53888216

>  <RI>
0

>  <Rbt.Current_Directory>
/home/fstefaniak/projects/zuza/docking/adenine/4TZX

>  <Rbt.Executable>
rbdock ($Id: //depot/dev/client3/rdock/2013.1/src/exe/rbdock.cxx#4 $)

>  <Rbt.Library>
libRbt.so (2013.1, Build901 2013/11/27)

>  <Rbt.Parameter_File>
/home/fstefaniak/progs/rDock//data/scripts/dock_solv.prm

>  <Rbt.Receptor>
4tzx.prm

>  <SCORE>
-53.0471

>  <SCORE.INTER>
-34.1186

>  <SCORE.INTER.CONST>
1

>  <SCORE.INTER.POLAR>
-5.20586

>  <SCORE.INTER.ROT>
3

>  <SCORE.INTER.SOLV>
11.0655

>  <SCORE.INTER.VDW>
-14.6813

>  <SCORE.INTER.norm>
-3.79095

>  <SCORE.INTRA>
1.00777

>  <SCORE.INTRA.DIHEDRAL>
2.98485

>  <SCORE.INTRA.DIHEDRAL.0>
2.37912

>  <SCORE.INTRA.POLAR>
0

>  <SCORE.INTRA.POLAR.0>
0

>  <SCORE.INTRA.REPUL>
0

>  <SCORE.INTRA.REPUL.0>
0

>  <SCORE.INTRA.SOLV>
-0.102789

>  <SCORE.INTRA.SOLV.lig_0>
-13.6375

>  <SCORE.INTRA.VDW>
-0.43326

>  <SCORE.INTRA.VDW.0>
1.24314

>  <SCORE.INTRA.norm>
0.111974

>  <SCORE.RESTR>
0

>  <SCORE.RESTR.CAVITY>
0

>  <SCORE.RESTR.norm>
0

>  <SCORE.SYSTEM>
-19.9363

>  <SCORE.SYSTEM.CONST>
0

>  <SCORE.SYSTEM.DIHEDRAL>
5.15453

>  <SCORE.SYSTEM.POLAR>
-3.13091

>  <SCORE.SYSTEM.SOLV>
-0.0696719

>  <SCORE.SYSTEM.VDW>
-4.54946

>  <SCORE.SYSTEM.norm>
-2.21514

>  <SCORE.heavy>
9

>  <SCORE.norm>
-5.89412

$$$$
P53888216
 OpenBabel12072022113D
libRbt.so/2013.1/901 2013/11/27
 12 12  0  0  0  0  0  0  0  0999 V2000
  -27.9288   14.0798  -16.0038 C   0  0  0  0  0  0  0  0  0  0  0  0
  -28.1046   15.3454  -16.6409 O   0  0  0  0  0  0  0  0  0  0  0  0
  -29.1968   16.0284  -16.2130 C   0  0  0  0  0  0  0  0  0  0  0  0
  -29.7573   15.8601  -15.1398 O   0  0  0  0  0  0  0  0  0  0  0  0
  -29.5701   16.9206  -17.1765 N   0  0  0  0  0  0  0  0  0  0  0  0
  -30.7420   17.7260  -17.0865 C   0  0  1  0  0  0  0  0  0  0  0  0
  -30.6607   19.2265  -17.1449 C   0  0  0  0  0  0  0  0  0  0  0  0
  -31.2572   18.4734  -18.2942 C   0  0  2  0  0  0  0  0  0  0  0  0
  -32.6944   18.5463  -18.5499 N   0  0  0  0  0  0  0  0  0  0  0  0
  -29.0473   16.8818  -18.0404 H   0  0  0  0  0  0  0  0  0  0  0  0
  -33.0171   17.7044  -19.0269 H   0  0  0  0  0  0  0  0  0  0  0  0
  -32.9265   19.3220  -19.1702 H   0  0  0  0  0  0  0  0  0  0  0  0
  1  2  1  0  0  0  0
  2  3  1  0  0  0  0
  3  4  2  0  0  0  0
  3  5  1  0  0  0  0
  5 10  1  0  0  0  0
  6  5  1  6  0  0  0
  6  7  1  0  0  0  0
  6  8  1  0  0  0  0
  7  8  1  0  0  0  0
  8  9  1  1  0  0  0
  9 11  1  0  0  0  0
  9 12  1  0  0  0  0
M  END
>  <CHROM.0>
-63.32451247,66.68200477,-62.65714034,-43.41076684,-57.35372073,-173.87677589
-68.30600980,-58.36195983,-169.01194050

>  <CHROM.1>
22.49924366,122.14676117,-82.74157100,-29.97731364,16.86981468,-16.91955748
-0.35555840,0.85069231,-1.61818642

>  <Name>
P53888216

>  <RI>
0

>  <Rbt.Current_Directory>
/home/fstefaniak/projects/zuza/docking/adenine/4TZX

>  <Rbt.Executable>
rbdock ($Id: //depot/dev/client3/rdock/2013.1/src/exe/rbdock.cxx#4 $)

>  <Rbt.Library>
libRbt.so (2013.1, Build901 2013/11/27)

>  <Rbt.Parameter_File>
/home/fstefaniak/progs/rDock//data/scripts/dock_solv.prm

>  <Rbt.Receptor>
4tzx.prm

>  <SCORE>
-53.0241

>  <SCORE.INTER>
-34.3893

>  <SCORE.INTER.CONST>
1

>  <SCORE.INTER.POLAR>
-5.39354

>  <SCORE.INTER.ROT>
3

>  <SCORE.INTER.SOLV>
10.9367

>  <SCORE.INTER.VDW>
-14.1934

>  <SCORE.INTER.norm>
-3.82104

>  <SCORE.INTRA>
1.25783

>  <SCORE.INTRA.DIHEDRAL>
3.59885

>  <SCORE.INTRA.DIHEDRAL.0>
2.37912

>  <SCORE.INTRA.POLAR>
0

>  <SCORE.INTRA.POLAR.0>
0

>  <SCORE.INTRA.REPUL>
0

>  <SCORE.INTRA.REPUL.0>
0

>  <SCORE.INTRA.SOLV>
-0.0924937

>  <SCORE.INTRA.SOLV.lig_0>
-13.6375

>  <SCORE.INTRA.VDW>
-0.495344

>  <SCORE.INTRA.VDW.0>
1.24314

>  <SCORE.INTRA.norm>
0.139759

>  <SCORE.RESTR>
0

>  <SCORE.RESTR.CAVITY>
0

>  <SCORE.RESTR.norm>
0

>  <SCORE.SYSTEM>
-19.8926

>  <SCORE.SYSTEM.CONST>
0

>  <SCORE.SYSTEM.DIHEDRAL>
4.71517

>  <SCORE.SYSTEM.POLAR>
-3.0377

>  <SCORE.SYSTEM.SOLV>
0.100246

>  <SCORE.SYSTEM.VDW>
-4.74122

>  <SCORE.SYSTEM.norm>
-2.21029

>  <SCORE.heavy>
9

>  <SCORE.norm>
-5.89157

$$$$
P53976880
 OpenBabel12072022113D
libRbt.so/2013.1/901 2013/11/27
 15 15  0  0  0  0  0  0  0  0999 V2000
  -29.9200   17.3451  -18.2318 C   0  0  0  0  0  0  0  0  0  0  0  0
  -30.3692   17.6804  -16.8836 N   0  0  0  0  0  0  0  0  0  0  0  0
  -29.7690   16.9851  -15.7175 C   0  0  0  0  0  0  0  0  0  0  0  0
  -30.0658   15.4774  -15.6970 C   0  0  0  0  0  0  0  0  0  0  0  0
  -29.0235   14.6580  -16.4395 C   0  0  0  0  0  0  0  0  0  0  0  0
  -27.7119   14.9621  -15.9725 O   0  0  0  0  0  0  0  0  0  0  0  0
  -27.3521   16.3174  -16.2172 C   0  0  0  0  0  0  0  0  0  0  0  0
  -28.2791   17.2714  -15.4781 C   0  0  0  0  0  0  0  0  0  0  0  0
  -31.5006   18.4596  -16.6334 C   0  0  0  0  0  0  0  0  0  0  0  0
  -32.0754   18.4953  -15.5450 O   0  0  0  0  0  0  0  0  0  0  0  0
  -31.9472   19.2186  -17.7082 N   0  0  0  0  0  0  0  0  0  0  0  0
  -33.0107   18.7007  -18.4998 N   0  0  0  0  0  0  0  0  0  0  0  0
  -31.9721   20.2210  -17.5455 H   0  0  0  0  0  0  0  0  0  0  0  0
  -32.6257   17.8883  -19.0038 H   0  0  0  0  0  0  0  0  0  0  0  0
  -33.1757   19.3780  -19.2503 H   0  0  0  0  0  0  0  0  0  0  0  0
  1  2  1  0  0  0  0
  2  3  1  0  0  0  0
  2  9  1  0  0  0  0
  3  4  1  0  0  0  0
  3  8  1  0  0  0  0
  4  5  1  0  0  0  0
  5  6  1  0  0  0  0
  6  7  1  0  0  0  0
  7  8  1  0  0  0  0
  9 10  2  0  0  0  0
  9 11  1  0  0  0  0
 11 12  1  0  0  0  0
 11 13  1  0  0  0  0
 12 14  1  0  0  0  0
 12 15  1  0  0  0  0
M  END
>  <CHROM.0>
-59.90765274,-63.32016231,-63.49958642,-43.74713168,-59.08894128,-171.93439697
-70.84189781,-61.59185886,-168.39512951

>  <CHROM.1>
-64.31191302,97.31347583,-68.94208018,-30.10857616,17.14336077,-16.61533033
-2.96270255,-0.70277394,1.40205983

>  <Name>
P53976880

>  <RI>
0

>  <Rbt.Current_Directory>
/home/fstefaniak/projects/zuza/docking/adenine/4TZX

>  <Rbt.Executable>
rbdock ($Id: //depot/dev/client3/rdock/2013.1/src/exe/rbdock.cxx#4 $)

>  <Rbt.Library>
libRbt.so (2013.1, Build901 2013/11/27)

>  <Rbt.Parameter_File>
/home/fstefaniak/progs/rDock//data/scripts/dock_solv.prm

>  <Rbt.Receptor>
4tzx.prm

>  <SCORE>
-52.07

>  <SCORE.INTER>
-29.3845

>  <SCORE.INTER.CONST>
1

>  <SCORE.INTER.POLAR>
-5.00179

>  <SCORE.INTER.ROT>
3

>  <SCORE.INTER.SOLV>
14.9539

>  <SCORE.INTER.VDW>
-13.5017

>  <SCORE.INTER.norm>
-2.44871

>  <SCORE.INTRA>
-1.80462

>  <SCORE.INTRA.DIHEDRAL>
-0.729214

>  <SCORE.INTRA.DIHEDRAL.0>
2.59116

>  <SCORE.INTRA.POLAR>
0

>  <SCORE.INTRA.POLAR.0>
0

>  <SCORE.INTRA.REPUL>
0

>  <SCORE.INTRA.REPUL.0>
0

>  <SCORE.INTRA.SOLV>
-0.0977272

>  <SCORE.INTRA.SOLV.lig_0>
-16.7261

>  <SCORE.INTRA.VDW>
-1.39115

>  <SCORE.INTRA.VDW.0>
1.29032

>  <SCORE.INTRA.norm>
-0.150385

>  <SCORE.RESTR>
0

>  <SCORE.RESTR.CAVITY>
0

>  <SCORE.RESTR.norm>
0

>  <SCORE.SYSTEM>
-20.8808

>  <SCORE.SYSTEM.CONST>
0

>  <SCORE.SYSTEM.DIHEDRAL>
4.84699

>  <SCORE.SYSTEM.POLAR>
-3.03969

>  <SCORE.SYSTEM.SOLV>
0.05988

>  <SCORE.SYSTEM.VDW>
-5.42387

>  <SCORE.SYSTEM.norm>
-1.74007

>  <SCORE.heavy>
12

>  <SCORE.norm>
-4.33917

$$$$
P53976880
 OpenBabel12072022113D
libRbt.so/2013.1/901 2013/11/27
 15 15  0  0  0  0  0  0  0  0999 V2000
  -29.9589   17.2761  -18.2238 C   0  0  0  0  0  0  0  0  0  0  0  0
  -30.3601   17.6487  -16.8703 N   0  0  0  0  0  0  0  0  0  0  0  0
  -29.7498   16.9552  -15.7084 C   0  0  0  0  0  0  0  0  0  0  0  0
  -30.0206   15.4425  -15.6996 C   0  0  0  0  0  0  0  0  0  0  0  0
  -28.9632   14.6467  -16.4464 C   0  0  0  0  0  0  0  0  0  0  0  0
  -27.6578   14.9699  -15.9749 O   0  0  0  0  0  0  0  0  0  0  0  0
  -27.3210   16.3329  -16.2090 C   0  0  0  0  0  0  0  0  0  0  0  0
  -28.2654   17.2653  -15.4644 C   0  0  0  0  0  0  0  0  0  0  0  0
  -31.4594   18.4675  -16.6039 C   0  0  0  0  0  0  0  0  0  0  0  0
  -32.0025   18.5402  -15.5011 O   0  0  0  0  0  0  0  0  0  0  0  0
  -31.9117   19.2214  -17.6799 N   0  0  0  0  0  0  0  0  0  0  0  0
  -32.9623   18.6882  -18.4785 N   0  0  0  0  0  0  0  0  0  0  0  0
  -31.9533   20.2229  -17.5155 H   0  0  0  0  0  0  0  0  0  0  0  0
  -32.5608   17.8846  -18.9838 H   0  0  0  0  0  0  0  0  0  0  0  0
  -33.1355   19.3656  -19.2271 H   0  0  0  0  0  0  0  0  0  0  0  0
  1  2  1  0  0  0  0
  2  3  1  0  0  0  0
  2  9  1  0  0  0  0
  3  4  1  0  0  0  0
  3  8  1  0  0  0  0
  4  5  1  0  0  0  0
  5  6  1  0  0  0  0
  6  7  1  0  0  0  0
  7  8  1  0  0  0  0
  9 10  2  0  0  0  0
  9 11  1  0  0  0  0
 11 12  1  0  0  0  0
 11 13  1  0  0  0  0
 12 14  1  0  0  0  0
 12 15  1  0  0  0  0
M  END
>  <CHROM.0>
-57.13366762,-63.33719107,-47.21848584,-42.80949365,-54.99201874,-62.70765338
-63.98755381,-172.92245362,-168.97389132

>  <CHROM.1>
-60.76531579,93.82691937,-69.10195803,-30.07551044,17.13412928,-16.60154368
-3.05058271,-0.71746686,1.27627159

>  <Name>
P53976880

>  <RI>
0

>  <Rbt.Current_Directory>
/home/fstefaniak/projects/zuza/docking/adenine/4TZX

>  <Rbt.Executable>
rbdock ($Id: //depot/dev/client3/rdock/2013.1/src/exe/rbdock.cxx#4 $)

>  <Rbt.Library>
libRbt.so (2013.1, Build901 2013/11/27)

>  <Rbt.Parameter_File>
/home/fstefaniak/progs/rDock//data/scripts/dock_solv.prm

>  <Rbt.Receptor>
4tzx.prm

>  <SCORE>
-51.7631

>  <SCORE.INTER>
-29.4242

>  <SCORE.INTER.CONST>
1

>  <SCORE.INTER.POLAR>
-5.15926

>  <SCORE.INTER.ROT>
3

>  <SCORE.INTER.SOLV>
14.9049

>  <SCORE.INTER.VDW>
-12.9869

>  <SCORE.INTER.norm>
-2.45202

>  <SCORE.INTRA>
-1.64858

>  <SCORE.INTRA.DIHEDRAL>
-0.674896

>  <SCORE.INTRA.DIHEDRAL.0>
2.59116

>  <SCORE.INTRA.POLAR>
0

>  <SCORE.INTRA.POLAR.0>
0

>  <SCORE.INTRA.REPUL>
0

>  <SCORE.INTRA.REPUL.0>
0

>  <SCORE.INTRA.SOLV>
-0.087114

>  <SCORE.INTRA.SOLV.lig_0>
-16.7261

>  <SCORE.INTRA.VDW>
-1.26757

>  <SCORE.INTRA.VDW.0>
1.29032

>  <SCORE.INTRA.norm>
-0.137381

>  <SCORE.RESTR>
0

>  <SCORE.RESTR.CAVITY>
0

>  <SCORE.RESTR.norm>
0

>  <SCORE.SYSTEM>
-20.6903

>  <SCORE.SYSTEM.CONST>
0

>  <SCORE.SYSTEM.DIHEDRAL>
5.2379

>  <SCORE.SYSTEM.POLAR>
-3.18691

>  <SCORE.SYSTEM.SOLV>
0.0902869

>  <SCORE.SYSTEM.VDW>
-4.94652

>  <SCORE.SYSTEM.norm>
-1.72419

>  <SCORE.heavy>
12

>  <SCORE.norm>
-4.31359

$$$$
P53976880
 OpenBabel12072022113D
libRbt.so/2013.1/901 2013/11/27
 15 15  0  0  0  0  0  0  0  0999 V2000
  -29.9183   17.3453  -18.2123 C   0  0  0  0  0  0  0  0  0  0  0  0
  -30.3727   17.6722  -16.8638 N   0  0  0  0  0  0  0  0  0  0  0  0
  -29.7784   16.9684  -15.6998 C   0  0  0  0  0  0  0  0  0  0  0  0
  -30.0724   15.4600  -15.6937 C   0  0  0  0  0  0  0  0  0  0  0  0
  -29.0240   14.6488  -16.4365 C   0  0  0  0  0  0  0  0  0  0  0  0
  -27.7159   14.9515  -15.9587 O   0  0  0  0  0  0  0  0  0  0  0  0
  -27.3572   16.3094  -16.1900 C   0  0  0  0  0  0  0  0  0  0  0  0
  -28.2906   17.2555  -15.4488 C   0  0  0  0  0  0  0  0  0  0  0  0
  -31.5041   18.4513  -16.6133 C   0  0  0  0  0  0  0  0  0  0  0  0
  -32.0835   18.4806  -15.5271 O   0  0  0  0  0  0  0  0  0  0  0  0
  -31.9451   19.2180  -17.6849 N   0  0  0  0  0  0  0  0  0  0  0  0
  -33.0120   18.7110  -18.4789 N   0  0  0  0  0  0  0  0  0  0  0  0
  -31.9629   20.2199  -17.5179 H   0  0  0  0  0  0  0  0  0  0  0  0
  -32.6399   17.8830  -18.9669 H   0  0  0  0  0  0  0  0  0  0  0  0
  -33.1553   19.3802  -19.2410 H   0  0  0  0  0  0  0  0  0  0  0  0
  1  2  1  0  0  0  0
  2  3  1  0  0  0  0
  2  9  1  0  0  0  0
  3  4  1  0  0  0  0
  3  8  1  0  0  0  0
  4  5  1  0  0  0  0
  5  6  1  0  0  0  0
  6  7  1  0  0  0  0
  7  8  1  0  0  0  0
  9 10  2  0  0  0  0
  9 11  1  0  0  0  0
 11 12  1  0  0  0  0
 11 13  1  0  0  0  0
 12 14  1  0  0  0  0
 12 15  1  0  0  0  0
M  END
>  <CHROM.0>
-59.92441650,-62.47627970,-68.70905134,-43.03099204,-174.96988519,-176.39359751
-167.27943317,-58.42584983,-169.33909342

>  <CHROM.1>
-64.07209556,97.73453467,-67.45648629,-30.11253227,17.13523435,-16.59728051
-2.96158859,-0.70411762,1.40597497

>  <Name>
P53976880

>  <RI>
0

>  <Rbt.Current_Directory>
/home/fstefaniak/projects/zuza/docking/adenine/4TZX

>  <Rbt.Executable>
rbdock ($Id: //depot/dev/client3/rdock/2013.1/src/exe/rbdock.cxx#4 $)

>  <Rbt.Library>
libRbt.so (2013.1, Build901 2013/11/27)

>  <Rbt.Parameter_File>
/home/fstefaniak/progs/rDock//data/scripts/dock_solv.prm

>  <Rbt.Receptor>
4tzx.prm

>  <SCORE>
-51.3831

>  <SCORE.INTER>
-29.1514

>  <SCORE.INTER.CONST>
1

>  <SCORE.INTER.POLAR>
-4.9684

>  <SCORE.INTER.ROT>
3

>  <SCORE.INTER.SOLV>
14.9639

>  <SCORE.INTER.VDW>
-13.4609

>  <SCORE.INTER.norm>
-2.42928

>  <SCORE.INTRA>
-1.82091

>  <SCORE.INTRA.DIHEDRAL>
-0.758946

>  <SCORE.INTRA.DIHEDRAL.0>
2.59116

>  <SCORE.INTRA.POLAR>
0

>  <SCORE.INTRA.POLAR.0>
0

>  <SCORE.INTRA.REPUL>
0

>  <SCORE.INTRA.REPUL.0>
0

>  <SCORE.INTRA.SOLV>
-0.097142

>  <SCORE.INTRA.SOLV.lig_0>
-16.7261

>  <SCORE.INTRA.VDW>
-1.39287

>  <SCORE.INTRA.VDW.0>
1.29032

>  <SCORE.INTRA.norm>
-0.151743

>  <SCORE.RESTR>
0

>  <SCORE.RESTR.CAVITY>
0

>  <SCORE.RESTR.norm>
0

>  <SCORE.SYSTEM>
-20.4108

>  <SCORE.SYSTEM.CONST>
0

>  <SCORE.SYSTEM.DIHEDRAL>
5.18487

>  <SCORE.SYSTEM.POLAR>
-3.03681

>  <SCORE.SYSTEM.SOLV>
-0.136676

>  <SCORE.SYSTEM.VDW>
-5.16725

>  <SCORE.SYSTEM.norm>
-1.7009

>  <SCORE.heavy>
12

>  <SCORE.norm>
-4.28193

$$$$
P54000040
 OpenBabel12072022113D
libRbt.so/2013.1/901 2013/11/27
 12 12  0  0  0  0  0  0  0  0999 V2000
  -27.3556   12.9515  -17.1936 C   0  0  0  0  0  0  0  0  0  0  0  0
  -28.4423   13.5484  -16.6880 C   0  0  0  0  0  0  0  0  0  0  0  0
  -28.4230   15.0003  -16.3767 C   0  0  0  0  0  0  0  0  0  0  0  0
  -27.4053   15.6769  -16.4208 O   0  0  0  0  0  0  0  0  0  0  0  0
  -29.6585   15.4955  -16.0331 N   0  0  0  0  0  0  0  0  0  0  0  0
  -29.8780   16.9426  -15.7614 C   0  0  0  0  0  0  0  0  0  0  0  0
  -29.8110   17.7960  -17.0678 C   0  0  0  0  0  0  0  0  0  0  0  0
  -31.0287   18.5884  -16.5567 C   0  0  0  0  0  0  0  0  0  0  0  0
  -31.3714   17.3746  -15.6725 C   0  0  0  0  0  0  0  0  0  0  0  0
  -29.0079   17.4153  -14.6903 C   0  0  0  0  0  0  0  0  0  0  0  0
  -28.2828   17.8055  -13.8715 N   0  0  0  0  0  0  0  0  0  0  0  0
  -30.4564   14.8756  -16.0803 H   0  0  0  0  0  0  0  0  0  0  0  0
  1  2  2  0  0  0  0
  2  3  1  0  0  0  0
  3  4  2  0  0  0  0
  3  5  1  0  0  0  0
  5  6  1  0  0  0  0
  5 12  1  0  0  0  0
  6  7  1  0  0  0  0
  6  9  1  0  0  0  0
  6 10  1  0  0  0  0
  7  8  1  0  0  0  0
  8  9  1  0  0  0  0
 10 11  3  0  0  0  0
M  END
>  <CHROM.0>
-59.91133943,-61.94513233,-66.14537295,-43.73123224,-58.95036028,-62.52306972
-67.68097937,-61.20862151,-168.85236974

>  <CHROM.1>
-8.23352389,71.70291606,-29.14388799,16.22863129,-16.04849188,0.93471893
0.55912480,-2.51816866

>  <Name>
P54000040

>  <RI>
0

>  <Rbt.Current_Directory>
/home/fstefaniak/projects/zuza/docking/adenine/4TZX

>  <Rbt.Executable>
rbdock ($Id: //depot/dev/client3/rdock/2013.1/src/exe/rbdock.cxx#4 $)

>  <Rbt.Library>
libRbt.so (2013.1, Build901 2013/11/27)

>  <Rbt.Parameter_File>
/home/fstefaniak/progs/rDock//data/scripts/dock_solv.prm

>  <Rbt.Receptor>
4tzx.prm

>  <SCORE>
-40.1517

>  <SCORE.INTER>
-19.0917

>  <SCORE.INTER.CONST>
1

>  <SCORE.INTER.POLAR>
-1.083

>  <SCORE.INTER.ROT>
2

>  <SCORE.INTER.SOLV>
10.2173

>  <SCORE.INTER.VDW>
-17.4569

>  <SCORE.INTER.norm>
-1.73561

>  <SCORE.INTRA>
0.158934

>  <SCORE.INTRA.DIHEDRAL>
0.363109

>  <SCORE.INTRA.DIHEDRAL.0>
1.01218

>  <SCORE.INTRA.POLAR>
0

>  <SCORE.INTRA.POLAR.0>
0

>  <SCORE.INTRA.REPUL>
0

>  <SCORE.INTRA.REPUL.0>
0

>  <SCORE.INTRA.SOLV>
0.178852

>  <SCORE.INTRA.SOLV.lig_0>
-11.3427

>  <SCORE.INTRA.VDW>
-0.112046

>  <SCORE.INTRA.VDW.0>
-0.437131

>  <SCORE.INTRA.norm>
0.0144486

>  <SCORE.RESTR>
0

>  <SCORE.RESTR.CAVITY>
0

>  <SCORE.RESTR.norm>
0

>  <SCORE.SYSTEM>
-21.2189

>  <SCORE.SYSTEM.CONST>
0

>  <SCORE.SYSTEM.DIHEDRAL>
4.36163

>  <SCORE.SYSTEM.POLAR>
-3.03699

>  <SCORE.SYSTEM.SOLV>
0.176882

>  <SCORE.SYSTEM.VDW>
-5.5355

>  <SCORE.SYSTEM.norm>
-1.92899

>  <SCORE.heavy>
11

>  <SCORE.norm>
-3.65015

$$$$
P54000040
 OpenBabel12072022113D
libRbt.so/2013.1/901 2013/11/27
 12 12  0  0  0  0  0  0  0  0999 V2000
  -27.3680   12.8831  -17.0641 C   0  0  0  0  0  0  0  0  0  0  0  0
  -28.4696   13.5113  -16.6345 C   0  0  0  0  0  0  0  0  0  0  0  0
  -28.4330   14.9646  -16.3311 C   0  0  0  0  0  0  0  0  0  0  0  0
  -27.4027   15.6231  -16.3520 O   0  0  0  0  0  0  0  0  0  0  0  0
  -29.6681   15.4835  -16.0234 N   0  0  0  0  0  0  0  0  0  0  0  0
  -29.8693   16.9358  -15.7659 C   0  0  0  0  0  0  0  0  0  0  0  0
  -29.8407   17.7696  -17.0863 C   0  0  0  0  0  0  0  0  0  0  0  0
  -31.0356   18.5777  -16.5466 C   0  0  0  0  0  0  0  0  0  0  0  0
  -31.3561   17.3793  -15.6335 C   0  0  0  0  0  0  0  0  0  0  0  0
  -28.9608   17.4181  -14.7316 C   0  0  0  0  0  0  0  0  0  0  0  0
  -28.2062   17.8152  -13.9433 N   0  0  0  0  0  0  0  0  0  0  0  0
  -30.4754   14.8773  -16.0883 H   0  0  0  0  0  0  0  0  0  0  0  0
  1  2  2  0  0  0  0
  2  3  1  0  0  0  0
  3  4  2  0  0  0  0
  3  5  1  0  0  0  0
  5  6  1  0  0  0  0
  5 12  1  0  0  0  0
  6  7  1  0  0  0  0
  6  9  1  0  0  0  0
  6 10  1  0  0  0  0
  7  8  1  0  0  0  0
  8  9  1  0  0  0  0
 10 11  3  0  0  0  0
M  END
>  <CHROM.0>
-60.47868589,-63.35952974,-66.03029939,-42.99576281,-59.06127708,-58.42938536
-66.75990242,-62.05795083,-169.60671842

>  <CHROM.1>
-5.94661830,75.23425418,-29.13932185,16.20689119,-16.02745631,0.94758853
0.53836696,-2.56888401

>  <Name>
P54000040

>  <RI>
0

>  <Rbt.Current_Directory>
/home/fstefaniak/projects/zuza/docking/adenine/4TZX

>  <Rbt.Executable>
rbdock ($Id: //depot/dev/client3/rdock/2013.1/src/exe/rbdock.cxx#4 $)

>  <Rbt.Library>
libRbt.so (2013.1, Build901 2013/11/27)

>  <Rbt.Parameter_File>
/home/fstefaniak/progs/rDock//data/scripts/dock_solv.prm

>  <Rbt.Receptor>
4tzx.prm

>  <SCORE>
-40.1487

>  <SCORE.INTER>
-19.1496

>  <SCORE.INTER.CONST>
1

>  <SCORE.INTER.POLAR>
-1.11411

>  <SCORE.INTER.ROT>
2

>  <SCORE.INTER.SOLV>
10.1141

>  <SCORE.INTER.VDW>
-17.3574

>  <SCORE.INTER.norm>
-1.74087

>  <SCORE.INTRA>
0.134561

>  <SCORE.INTRA.DIHEDRAL>
0.216368

>  <SCORE.INTRA.DIHEDRAL.0>
1.01218

>  <SCORE.INTRA.POLAR>
0

>  <SCORE.INTRA.POLAR.0>
0

>  <SCORE.INTRA.REPUL>
0

>  <SCORE.INTRA.REPUL.0>
0

>  <SCORE.INTRA.SOLV>
0.199761

>  <SCORE.INTRA.SOLV.lig_0>
-11.3427

>  <SCORE.INTRA.VDW>
-0.0735038

>  <SCORE.INTRA.VDW.0>
-0.437131

>  <SCORE.INTRA.norm>
0.0122328

>  <SCORE.RESTR>
0

>  <SCORE.RESTR.CAVITY>
0

>  <SCORE.RESTR.norm>
0

>  <SCORE.SYSTEM>
-21.1337

>  <SCORE.SYSTEM.CONST>
0

>  <SCORE.SYSTEM.DIHEDRAL>
4.36062

>  <SCORE.SYSTEM.POLAR>
-3.03625

>  <SCORE.SYSTEM.SOLV>
0.185805

>  <SCORE.SYSTEM.VDW>
-5.48376

>  <SCORE.SYSTEM.norm>
-1.92125

>  <SCORE.heavy>
11

>  <SCORE.norm>
-3.64988

$$$$
P54000040
 OpenBabel12072022113D
libRbt.so/2013.1/901 2013/11/27
 12 12  0  0  0  0  0  0  0  0999 V2000
  -27.3439   12.9158  -17.1001 C   0  0  0  0  0  0  0  0  0  0  0  0
  -28.4515   13.5315  -16.6677 C   0  0  0  0  0  0  0  0  0  0  0  0
  -28.4240   14.9796  -16.3396 C   0  0  0  0  0  0  0  0  0  0  0  0
  -27.3967   15.6429  -16.3412 O   0  0  0  0  0  0  0  0  0  0  0  0
  -29.6640   15.4876  -16.0329 N   0  0  0  0  0  0  0  0  0  0  0  0
  -29.8739   16.9344  -15.7527 C   0  0  0  0  0  0  0  0  0  0  0  0
  -29.8102   17.7940  -17.0551 C   0  0  0  0  0  0  0  0  0  0  0  0
  -31.0204   18.5905  -16.5326 C   0  0  0  0  0  0  0  0  0  0  0  0
  -31.3643   17.3742  -15.6524 C   0  0  0  0  0  0  0  0  0  0  0  0
  -28.9947   17.3969  -14.6846 C   0  0  0  0  0  0  0  0  0  0  0  0
  -28.2624   17.7790  -13.8683 N   0  0  0  0  0  0  0  0  0  0  0  0
  -30.4679   14.8789  -16.1145 H   0  0  0  0  0  0  0  0  0  0  0  0
  1  2  2  0  0  0  0
  2  3  1  0  0  0  0
  3  4  2  0  0  0  0
  3  5  1  0  0  0  0
  5  6  1  0  0  0  0
  5 12  1  0  0  0  0
  6  7  1  0  0  0  0
  6  9  1  0  0  0  0
  6 10  1  0  0  0  0
  7  8  1  0  0  0  0
  8  9  1  0  0  0  0
 10 11  3  0  0  0  0
M  END
>  <CHROM.0>
-59.89127404,-59.90413884,-66.22121721,-43.03122189,-59.25437801,-63.95488500
-65.39141690,-58.14603394,-168.37092083

>  <CHROM.1>
-5.99507555,74.08701043,-29.13854595,16.21320596,-16.02000991,0.93300499
0.55930322,-2.53368593

>  <Name>
P54000040

>  <RI>
0

>  <Rbt.Current_Directory>
/home/fstefaniak/projects/zuza/docking/adenine/4TZX

>  <Rbt.Executable>
rbdock ($Id: //depot/dev/client3/rdock/2013.1/src/exe/rbdock.cxx#4 $)

>  <Rbt.Library>
libRbt.so (2013.1, Build901 2013/11/27)

>  <Rbt.Parameter_File>
/home/fstefaniak/progs/rDock//data/scripts/dock_solv.prm

>  <Rbt.Receptor>
4tzx.prm

>  <SCORE>
-40.1381

>  <SCORE.INTER>
-19.1211

>  <SCORE.INTER.CONST>
1

>  <SCORE.INTER.POLAR>
-1.11863

>  <SCORE.INTER.ROT>
2

>  <SCORE.INTER.SOLV>
10.1709

>  <SCORE.INTER.VDW>
-17.3423

>  <SCORE.INTER.norm>
-1.73828

>  <SCORE.INTRA>
0.124864

>  <SCORE.INTRA.DIHEDRAL>
0.230028

>  <SCORE.INTRA.DIHEDRAL.0>
1.01218

>  <SCORE.INTRA.POLAR>
0

>  <SCORE.INTRA.POLAR.0>
0

>  <SCORE.INTRA.REPUL>
0

>  <SCORE.INTRA.REPUL.0>
0

>  <SCORE.INTRA.SOLV>
0.192962

>  <SCORE.INTRA.SOLV.lig_0>
-11.3427

>  <SCORE.INTRA.VDW>
-0.0866316

>  <SCORE.INTRA.VDW.0>
-0.437131

>  <SCORE.INTRA.norm>
0.0113512

>  <SCORE.RESTR>
0

>  <SCORE.RESTR.CAVITY>
0

>  <SCORE.RESTR.norm>
0

>  <SCORE.SYSTEM>
-21.1418

>  <SCORE.SYSTEM.CONST>
0

>  <SCORE.SYSTEM.DIHEDRAL>
4.40735

>  <SCORE.SYSTEM.POLAR>
-3.05304

>  <SCORE.SYSTEM.SOLV>
0.186637

>  <SCORE.SYSTEM.VDW>
-5.44909

>  <SCORE.SYSTEM.norm>
-1.92198

>  <SCORE.heavy>
11

>  <SCORE.norm>
-3.64892

$$$$
P54927197
 OpenBabel12072022113D
libRbt.so/2013.1/901 2013/11/27
 14 14  0  0  0  0  0  0  0  0999 V2000
  -25.6387   12.9672  -15.6340 C   0  0  0  0  0  0  0  0  0  0  0  0
  -26.1611   13.6094  -16.9208 C   0  0  0  0  0  0  0  0  0  0  0  0
  -27.6936   13.6334  -16.9690 C   0  0  0  0  0  0  0  0  0  0  0  0
  -28.2997   14.6569  -16.0122 C   0  0  0  0  0  0  0  0  0  0  0  0
  -27.7151   15.9856  -16.1774 N   0  0  0  0  0  0  0  0  0  0  0  0
  -26.2510   16.0405  -16.1568 C   0  0  0  0  0  0  0  0  0  0  0  0
  -25.6208   15.0315  -17.1137 C   0  0  0  0  0  0  0  0  0  0  0  0
  -28.4972   17.0551  -15.7423 C   0  0  0  0  0  0  0  0  0  0  0  0
  -29.2896   17.6619  -16.4629 O   0  0  0  0  0  0  0  0  0  0  0  0
  -28.3156   17.4039  -14.4091 N   0  0  0  0  0  0  0  0  0  0  0  0
  -29.4466   17.3694  -13.5461 N   0  0  0  0  0  0  0  0  0  0  0  0
  -27.6667   18.1710  -14.2572 H   0  0  0  0  0  0  0  0  0  0  0  0
  -29.7718   18.3355  -13.4478 H   0  0  0  0  0  0  0  0  0  0  0  0
  -29.0839   17.1497  -12.6066 H   0  0  0  0  0  0  0  0  0  0  0  0
  1  2  1  0  0  0  0
  2  3  1  0  0  0  0
  2  7  1  0  0  0  0
  3  4  1  0  0  0  0
  4  5  1  0  0  0  0
  5  6  1  0  0  0  0
  5  8  1  0  0  0  0
  6  7  1  0  0  0  0
  8  9  2  0  0  0  0
  8 10  1  0  0  0  0
 10 11  1  0  0  0  0
 10 12  1  0  0  0  0
 11 13  1  0  0  0  0
 11 14  1  0  0  0  0
M  END
>  <CHROM.0>
-56.52083856,-59.26476171,-44.26122737,-45.38064726,-175.73399936,-60.94736237
-66.47521541,-172.48200570,-169.06838174

>  <CHROM.1>
-91.02299015,-121.54836876,-100.33552034,-27.57001333,15.63003235,-15.87571506
-0.07253692,-0.96414641,1.92457156

>  <Name>
P54927197

>  <RI>
0

>  <Rbt.Current_Directory>
/home/fstefaniak/projects/zuza/docking/adenine/4TZX

>  <Rbt.Executable>
rbdock ($Id: //depot/dev/client3/rdock/2013.1/src/exe/rbdock.cxx#4 $)

>  <Rbt.Library>
libRbt.so (2013.1, Build901 2013/11/27)

>  <Rbt.Parameter_File>
/home/fstefaniak/progs/rDock//data/scripts/dock_solv.prm

>  <Rbt.Receptor>
4tzx.prm

>  <SCORE>
-51.7914

>  <SCORE.INTER>
-28.8899

>  <SCORE.INTER.CONST>
1

>  <SCORE.INTER.POLAR>
-3.87768

>  <SCORE.INTER.ROT>
3

>  <SCORE.INTER.SOLV>
12.2425

>  <SCORE.INTER.VDW>
-16.0152

>  <SCORE.INTER.norm>
-2.62635

>  <SCORE.INTRA>
-2.21684

>  <SCORE.INTRA.DIHEDRAL>
-0.651109

>  <SCORE.INTRA.DIHEDRAL.0>
2.21904

>  <SCORE.INTRA.POLAR>
0

>  <SCORE.INTRA.POLAR.0>
0

>  <SCORE.INTRA.REPUL>
0

>  <SCORE.INTRA.REPUL.0>
0

>  <SCORE.INTRA.SOLV>
-0.127151

>  <SCORE.INTRA.SOLV.lig_0>
-15.9386

>  <SCORE.INTRA.VDW>
-1.82771

>  <SCORE.INTRA.VDW.0>
0.844764

>  <SCORE.INTRA.norm>
-0.201531

>  <SCORE.RESTR>
0

>  <SCORE.RESTR.CAVITY>
0

>  <SCORE.RESTR.norm>
0

>  <SCORE.SYSTEM>
-20.6847

>  <SCORE.SYSTEM.CONST>
0

>  <SCORE.SYSTEM.DIHEDRAL>
5.28241

>  <SCORE.SYSTEM.POLAR>
-3.14734

>  <SCORE.SYSTEM.SOLV>
-0.101098

>  <SCORE.SYSTEM.VDW>
-5.02573

>  <SCORE.SYSTEM.norm>
-1.88042

>  <SCORE.heavy>
11

>  <SCORE.norm>
-4.70831

$$$$
P54927197
 OpenBabel12072022113D
libRbt.so/2013.1/901 2013/11/27
 14 14  0  0  0  0  0  0  0  0999 V2000
  -25.4520   13.0249  -15.5808 C   0  0  0  0  0  0  0  0  0  0  0  0
  -25.9605   13.6471  -16.8828 C   0  0  0  0  0  0  0  0  0  0  0  0
  -27.4905   13.6117  -16.9765 C   0  0  0  0  0  0  0  0  0  0  0  0
  -28.1642   14.6103  -16.0387 C   0  0  0  0  0  0  0  0  0  0  0  0
  -27.6268   15.9608  -16.1871 N   0  0  0  0  0  0  0  0  0  0  0  0
  -26.1673   16.0724  -16.1230 C   0  0  0  0  0  0  0  0  0  0  0  0
  -25.4702   15.0893  -17.0603 C   0  0  0  0  0  0  0  0  0  0  0  0
  -28.4625   16.9988  -15.7759 C   0  0  0  0  0  0  0  0  0  0  0  0
  -29.2931   17.5396  -16.5060 O   0  0  0  0  0  0  0  0  0  0  0  0
  -28.2887   17.3971  -14.4556 N   0  0  0  0  0  0  0  0  0  0  0  0
  -29.4190   17.3683  -13.5914 N   0  0  0  0  0  0  0  0  0  0  0  0
  -27.6564   18.1826  -14.3305 H   0  0  0  0  0  0  0  0  0  0  0  0
  -29.7682   18.3291  -13.5309 H   0  0  0  0  0  0  0  0  0  0  0  0
  -29.0514   17.1946  -12.6442 H   0  0  0  0  0  0  0  0  0  0  0  0
  1  2  1  0  0  0  0
  2  3  1  0  0  0  0
  2  7  1  0  0  0  0
  3  4  1  0  0  0  0
  4  5  1  0  0  0  0
  5  6  1  0  0  0  0
  5  8  1  0  0  0  0
  6  7  1  0  0  0  0
  8  9  2  0  0  0  0
  8 10  1  0  0  0  0
 10 11  1  0  0  0  0
 10 12  1  0  0  0  0
 11 13  1  0  0  0  0
 11 14  1  0  0  0  0
M  END
>  <CHROM.0>
-56.89157205,-58.57482368,-50.84733808,-42.14590655,-172.36338526,-59.88283666
-63.12380892,59.25564973,-168.96722144

>  <CHROM.1>
-88.05390675,-123.54561996,-99.99689844,-27.46910866,15.62124305,-15.87997236
-0.29951707,-0.89295346,1.62576822

>  <Name>
P54927197

>  <RI>
0

>  <Rbt.Current_Directory>
/home/fstefaniak/projects/zuza/docking/adenine/4TZX

>  <Rbt.Executable>
rbdock ($Id: //depot/dev/client3/rdock/2013.1/src/exe/rbdock.cxx#4 $)

>  <Rbt.Library>
libRbt.so (2013.1, Build901 2013/11/27)

>  <Rbt.Parameter_File>
/home/fstefaniak/progs/rDock//data/scripts/dock_solv.prm

>  <Rbt.Receptor>
4tzx.prm

>  <SCORE>
-51.3144

>  <SCORE.INTER>
-29.2902

>  <SCORE.INTER.CONST>
1

>  <SCORE.INTER.POLAR>
-3.8823

>  <SCORE.INTER.ROT>
3

>  <SCORE.INTER.SOLV>
12.1893

>  <SCORE.INTER.VDW>
-16.2489

>  <SCORE.INTER.norm>
-2.66274

>  <SCORE.INTRA>
-2.17711

>  <SCORE.INTRA.DIHEDRAL>
-0.662127

>  <SCORE.INTRA.DIHEDRAL.0>
2.21904

>  <SCORE.INTRA.POLAR>
0

>  <SCORE.INTRA.POLAR.0>
0

>  <SCORE.INTRA.REPUL>
0

>  <SCORE.INTRA.REPUL.0>
0

>  <SCORE.INTRA.SOLV>
-0.133336

>  <SCORE.INTRA.SOLV.lig_0>
-15.9386

>  <SCORE.INTRA.VDW>
-1.77938

>  <SCORE.INTRA.VDW.0>
0.844764

>  <SCORE.INTRA.norm>
-0.197919

>  <SCORE.RESTR>
0

>  <SCORE.RESTR.CAVITY>
0

>  <SCORE.RESTR.norm>
0

>  <SCORE.SYSTEM>
-19.8471

>  <SCORE.SYSTEM.CONST>
0

>  <SCORE.SYSTEM.DIHEDRAL>
4.81939

>  <SCORE.SYSTEM.POLAR>
-3.14909

>  <SCORE.SYSTEM.SOLV>
-0.129037

>  <SCORE.SYSTEM.VDW>
-4.2979

>  <SCORE.SYSTEM.norm>
-1.80428

>  <SCORE.heavy>
11

>  <SCORE.norm>
-4.66495

$$$$
P54927197
 OpenBabel12072022113D
libRbt.so/2013.1/901 2013/11/27
 14 14  0  0  0  0  0  0  0  0999 V2000
  -25.1725   13.1578  -15.6964 C   0  0  0  0  0  0  0  0  0  0  0  0
  -25.6765   13.8220  -16.9792 C   0  0  0  0  0  0  0  0  0  0  0  0
  -27.1891   13.6469  -17.1600 C   0  0  0  0  0  0  0  0  0  0  0  0
  -28.0037   14.5048  -16.1953 C   0  0  0  0  0  0  0  0  0  0  0  0
  -27.5970   15.9079  -16.2213 N   0  0  0  0  0  0  0  0  0  0  0  0
  -26.1607   16.1541  -16.0688 C   0  0  0  0  0  0  0  0  0  0  0  0
  -25.3244   15.3136  -17.0307 C   0  0  0  0  0  0  0  0  0  0  0  0
  -28.5510   16.8281  -15.7875 C   0  0  0  0  0  0  0  0  0  0  0  0
  -29.5340   17.1595  -16.4502 O   0  0  0  0  0  0  0  0  0  0  0  0
  -28.3109   17.3645  -14.5279 N   0  0  0  0  0  0  0  0  0  0  0  0
  -29.3777   17.3699  -13.5860 N   0  0  0  0  0  0  0  0  0  0  0  0
  -27.7146   18.1874  -14.5252 H   0  0  0  0  0  0  0  0  0  0  0  0
  -29.7181   18.3342  -13.5317 H   0  0  0  0  0  0  0  0  0  0  0  0
  -28.9451   17.2237  -12.6620 H   0  0  0  0  0  0  0  0  0  0  0  0
  1  2  1  0  0  0  0
  2  3  1  0  0  0  0
  2  7  1  0  0  0  0
  3  4  1  0  0  0  0
  4  5  1  0  0  0  0
  5  6  1  0  0  0  0
  5  8  1  0  0  0  0
  6  7  1  0  0  0  0
  8  9  2  0  0  0  0
  8 10  1  0  0  0  0
 10 11  1  0  0  0  0
 10 12  1  0  0  0  0
 11 13  1  0  0  0  0
 11 14  1  0  0  0  0
M  END
>  <CHROM.0>
-56.64897481,-61.71535747,-45.72700393,49.84964678,-55.35823785,-58.24649726
-65.16600072,-59.79159588,-168.76572557

>  <CHROM.1>
-74.65880022,-130.84249396,-104.98471944,-27.39034837,15.61051112,-15.92746573
-0.75923415,-0.45408052,0.91792955

>  <Name>
P54927197

>  <RI>
0

>  <Rbt.Current_Directory>
/home/fstefaniak/projects/zuza/docking/adenine/4TZX

>  <Rbt.Executable>
rbdock ($Id: //depot/dev/client3/rdock/2013.1/src/exe/rbdock.cxx#4 $)

>  <Rbt.Library>
libRbt.so (2013.1, Build901 2013/11/27)

>  <Rbt.Parameter_File>
/home/fstefaniak/progs/rDock//data/scripts/dock_solv.prm

>  <Rbt.Receptor>
4tzx.prm

>  <SCORE>
-49.6153

>  <SCORE.INTER>
-30.0414

>  <SCORE.INTER.CONST>
1

>  <SCORE.INTER.POLAR>
-3.89372

>  <SCORE.INTER.ROT>
3

>  <SCORE.INTER.SOLV>
12.2099

>  <SCORE.INTER.VDW>
-16.7185

>  <SCORE.INTER.norm>
-2.73104

>  <SCORE.INTRA>
-1.91082

>  <SCORE.INTRA.DIHEDRAL>
-0.495616

>  <SCORE.INTRA.DIHEDRAL.0>
2.21904

>  <SCORE.INTRA.POLAR>
0

>  <SCORE.INTRA.POLAR.0>
0

>  <SCORE.INTRA.REPUL>
0

>  <SCORE.INTRA.REPUL.0>
0

>  <SCORE.INTRA.SOLV>
-0.159521

>  <SCORE.INTRA.SOLV.lig_0>
-15.9386

>  <SCORE.INTRA.VDW>
-1.58325

>  <SCORE.INTRA.VDW.0>
0.844764

>  <SCORE.INTRA.norm>
-0.173711

>  <SCORE.RESTR>
0

>  <SCORE.RESTR.CAVITY>
0

>  <SCORE.RESTR.norm>
0

>  <SCORE.SYSTEM>
-17.6631

>  <SCORE.SYSTEM.CONST>
0

>  <SCORE.SYSTEM.DIHEDRAL>
4.34755

>  <SCORE.SYSTEM.POLAR>
-2.63423

>  <SCORE.SYSTEM.SOLV>
0.175538

>  <SCORE.SYSTEM.VDW>
-4.50231

>  <SCORE.SYSTEM.norm>
-1.60573

>  <SCORE.heavy>
11

>  <SCORE.norm>
-4.51048

$$$$
P54927198
 OpenBabel12072022113D
libRbt.so/2013.1/901 2013/11/27
 12 12  0  0  0  0  0  0  0  0999 V2000
  -29.9547   17.9735  -18.6943 C   0  0  0  0  0  0  0  0  0  0  0  0
  -31.4020   18.4456  -18.6622 C   0  0  0  0  0  0  0  0  0  0  0  0
  -31.5876   18.8790  -17.2151 C   0  0  0  0  0  0  0  0  0  0  0  0
  -30.6860   18.0276  -16.4588 N   0  0  0  0  0  0  0  0  0  0  0  0
  -29.7859   17.2999  -17.3398 C   0  0  0  0  0  0  0  0  0  0  0  0
  -30.8127   17.9138  -15.0959 C   0  0  0  0  0  0  0  0  0  0  0  0
  -31.6641   18.5229  -14.4481 O   0  0  0  0  0  0  0  0  0  0  0  0
  -29.9251   17.0353  -14.4923 N   0  0  0  0  0  0  0  0  0  0  0  0
  -28.8725   17.5678  -13.7014 N   0  0  0  0  0  0  0  0  0  0  0  0
  -29.7429   16.1569  -14.9635 H   0  0  0  0  0  0  0  0  0  0  0  0
  -28.8424   17.0111  -12.8417 H   0  0  0  0  0  0  0  0  0  0  0  0
  -29.2007   18.4851  -13.3664 H   0  0  0  0  0  0  0  0  0  0  0  0
  1  2  1  0  0  0  0
  1  5  1  0  0  0  0
  2  3  1  0  0  0  0
  3  4  1  0  0  0  0
  4  5  1  0  0  0  0
  4  6  1  0  0  0  0
  6  7  2  0  0  0  0
  6  8  1  0  0  0  0
  8  9  1  0  0  0  0
  8 10  1  0  0  0  0
  9 11  1  0  0  0  0
  9 12  1  0  0  0  0
M  END
>  <CHROM.0>
-59.56587674,-65.63479783,-63.77397147,-43.59036615,-178.57916068,-65.52420125
-64.37839067,-55.18991725,-168.90159804

>  <CHROM.1>
108.29415105,134.66652215,-30.50495546,17.95489978,-16.16653944,-1.80635567
-0.51048142,1.59650663

>  <Name>
P54927198

>  <RI>
0

>  <Rbt.Current_Directory>
/home/fstefaniak/projects/zuza/docking/adenine/4TZX

>  <Rbt.Executable>
rbdock ($Id: //depot/dev/client3/rdock/2013.1/src/exe/rbdock.cxx#4 $)

>  <Rbt.Library>
libRbt.so (2013.1, Build901 2013/11/27)

>  <Rbt.Parameter_File>
/home/fstefaniak/progs/rDock//data/scripts/dock_solv.prm

>  <Rbt.Receptor>
4tzx.prm

>  <SCORE>
-56.1504

>  <SCORE.INTER>
-34.1897

>  <SCORE.INTER.CONST>
1

>  <SCORE.INTER.POLAR>
-4.82899

>  <SCORE.INTER.ROT>
2

>  <SCORE.INTER.SOLV>
12.2511

>  <SCORE.INTER.VDW>
-15.7136

>  <SCORE.INTER.norm>
-3.79886

>  <SCORE.INTRA>
-0.713284

>  <SCORE.INTRA.DIHEDRAL>
-0.54418

>  <SCORE.INTRA.DIHEDRAL.0>
1.66949

>  <SCORE.INTRA.POLAR>
0

>  <SCORE.INTRA.POLAR.0>
0

>  <SCORE.INTRA.REPUL>
0

>  <SCORE.INTRA.REPUL.0>
0

>  <SCORE.INTRA.SOLV>
0.0121194

>  <SCORE.INTRA.SOLV.lig_0>
-15.2558

>  <SCORE.INTRA.VDW>
-0.447254

>  <SCORE.INTRA.VDW.0>
0.11491

>  <SCORE.INTRA.norm>
-0.0792538

>  <SCORE.RESTR>
0

>  <SCORE.RESTR.CAVITY>
0

>  <SCORE.RESTR.norm>
0

>  <SCORE.SYSTEM>
-21.2474

>  <SCORE.SYSTEM.CONST>
0

>  <SCORE.SYSTEM.DIHEDRAL>
4.43781

>  <SCORE.SYSTEM.POLAR>
-3.05471

>  <SCORE.SYSTEM.SOLV>
0.00428251

>  <SCORE.SYSTEM.VDW>
-5.46322

>  <SCORE.SYSTEM.norm>
-2.36082

>  <SCORE.heavy>
9

>  <SCORE.norm>
-6.23893

$$$$
P54927198
 OpenBabel12072022113D
libRbt.so/2013.1/901 2013/11/27
 12 12  0  0  0  0  0  0  0  0999 V2000
  -31.3164   18.5204  -18.7383 C   0  0  0  0  0  0  0  0  0  0  0  0
  -29.8856   18.0038  -18.6722 C   0  0  0  0  0  0  0  0  0  0  0  0
  -29.8955   17.1300  -17.4262 C   0  0  0  0  0  0  0  0  0  0  0  0
  -30.8925   17.7361  -16.5611 N   0  0  0  0  0  0  0  0  0  0  0  0
  -31.6674   18.7399  -17.2736 C   0  0  0  0  0  0  0  0  0  0  0  0
  -30.9506   17.4101  -15.2282 C   0  0  0  0  0  0  0  0  0  0  0  0
  -30.1929   16.5941  -14.7034 O   0  0  0  0  0  0  0  0  0  0  0  0
  -31.9133   18.0894  -14.4962 N   0  0  0  0  0  0  0  0  0  0  0  0
  -31.6367   18.4102  -13.1406 N   0  0  0  0  0  0  0  0  0  0  0  0
  -32.8843   17.9303  -14.7389 H   0  0  0  0  0  0  0  0  0  0  0  0
  -31.5721   17.5203  -12.6369 H   0  0  0  0  0  0  0  0  0  0  0  0
  -32.5006   18.8236  -12.7612 H   0  0  0  0  0  0  0  0  0  0  0  0
  1  2  1  0  0  0  0
  1  5  1  0  0  0  0
  2  3  1  0  0  0  0
  3  4  1  0  0  0  0
  4  5  1  0  0  0  0
  4  6  1  0  0  0  0
  6  7  2  0  0  0  0
  6  8  1  0  0  0  0
  8  9  1  0  0  0  0
  8 10  1  0  0  0  0
  9 11  1  0  0  0  0
  9 12  1  0  0  0  0
M  END
>  <CHROM.0>
-63.23928454,-64.46846983,-65.60567565,-43.10023840,-57.09633628,-63.30961200
-68.00815066,-63.53927898,-168.79902554

>  <CHROM.1>
-146.27032654,-65.68908931,-30.94861424,17.84150825,-16.17470562,1.32405482
0.74099232,-1.34423267

>  <Name>
P54927198

>  <RI>
0

>  <Rbt.Current_Directory>
/home/fstefaniak/projects/zuza/docking/adenine/4TZX

>  <Rbt.Executable>
rbdock ($Id: //depot/dev/client3/rdock/2013.1/src/exe/rbdock.cxx#4 $)

>  <Rbt.Library>
libRbt.so (2013.1, Build901 2013/11/27)

>  <Rbt.Parameter_File>
/home/fstefaniak/progs/rDock//data/scripts/dock_solv.prm

>  <Rbt.Receptor>
4tzx.prm

>  <SCORE>
-55.3258

>  <SCORE.INTER>
-33.0388

>  <SCORE.INTER.CONST>
1

>  <SCORE.INTER.POLAR>
-4.30557

>  <SCORE.INTER.ROT>
2

>  <SCORE.INTER.SOLV>
13.0027

>  <SCORE.INTER.VDW>
-16.9416

>  <SCORE.INTER.norm>
-3.67098

>  <SCORE.INTRA>
-1.10346

>  <SCORE.INTRA.DIHEDRAL>
-0.789015

>  <SCORE.INTRA.DIHEDRAL.0>
1.66949

>  <SCORE.INTRA.POLAR>
0

>  <SCORE.INTRA.POLAR.0>
0

>  <SCORE.INTRA.REPUL>
0

>  <SCORE.INTRA.REPUL.0>
0

>  <SCORE.INTRA.SOLV>
-0.132912

>  <SCORE.INTRA.SOLV.lig_0>
-15.2558

>  <SCORE.INTRA.VDW>
-0.642499

>  <SCORE.INTRA.VDW.0>
0.11491

>  <SCORE.INTRA.norm>
-0.122607

>  <SCORE.RESTR>
0

>  <SCORE.RESTR.CAVITY>
0

>  <SCORE.RESTR.norm>
0

>  <SCORE.SYSTEM>
-21.1836

>  <SCORE.SYSTEM.CONST>
0

>  <SCORE.SYSTEM.DIHEDRAL>
4.67903

>  <SCORE.SYSTEM.POLAR>
-3.03797

>  <SCORE.SYSTEM.SOLV>
0.165748

>  <SCORE.SYSTEM.VDW>
-5.61074

>  <SCORE.SYSTEM.norm>
-2.35373

>  <SCORE.heavy>
9

>  <SCORE.norm>
-6.14732

$$$$
P54927198
 OpenBabel12072022113D
libRbt.so/2013.1/901 2013/11/27
 12 12  0  0  0  0  0  0  0  0999 V2000
  -29.9518   17.9766  -18.7323 C   0  0  0  0  0  0  0  0  0  0  0  0
  -31.3947   18.4604  -18.6806 C   0  0  0  0  0  0  0  0  0  0  0  0
  -31.5539   18.9050  -17.2338 C   0  0  0  0  0  0  0  0  0  0  0  0
  -30.6472   18.0516  -16.4859 N   0  0  0  0  0  0  0  0  0  0  0  0
  -29.7669   17.3109  -17.3760 C   0  0  0  0  0  0  0  0  0  0  0  0
  -30.7531   17.9481  -15.1205 C   0  0  0  0  0  0  0  0  0  0  0  0
  -31.5893   18.5682  -14.4635 O   0  0  0  0  0  0  0  0  0  0  0  0
  -29.8630   17.0666  -14.5249 N   0  0  0  0  0  0  0  0  0  0  0  0
  -28.8321   17.5929  -13.7020 N   0  0  0  0  0  0  0  0  0  0  0  0
  -29.6597   16.2038  -15.0160 H   0  0  0  0  0  0  0  0  0  0  0  0
  -28.8099   17.0154  -12.8559 H   0  0  0  0  0  0  0  0  0  0  0  0
  -29.1786   18.4972  -13.3505 H   0  0  0  0  0  0  0  0  0  0  0  0
  1  2  1  0  0  0  0
  1  5  1  0  0  0  0
  2  3  1  0  0  0  0
  3  4  1  0  0  0  0
  4  5  1  0  0  0  0
  4  6  1  0  0  0  0
  6  7  2  0  0  0  0
  6  8  1  0  0  0  0
  8  9  1  0  0  0  0
  8 10  1  0  0  0  0
  9 11  1  0  0  0  0
  9 12  1  0  0  0  0
M  END
>  <CHROM.0>
-59.65373111,57.66759994,-71.85610746,-42.13080144,-54.58294888,-60.50599021
-168.51597708,-58.79576575,-169.06845285

>  <CHROM.1>
111.28390790,134.52517321,-30.46688972,17.97887366,-16.18976929,-1.81982460
-0.52550872,1.58084422

>  <Name>
P54927198

>  <RI>
0

>  <Rbt.Current_Directory>
/home/fstefaniak/projects/zuza/docking/adenine/4TZX

>  <Rbt.Executable>
rbdock ($Id: //depot/dev/client3/rdock/2013.1/src/exe/rbdock.cxx#4 $)

>  <Rbt.Library>
libRbt.so (2013.1, Build901 2013/11/27)

>  <Rbt.Parameter_File>
/home/fstefaniak/progs/rDock//data/scripts/dock_solv.prm

>  <Rbt.Receptor>
4tzx.prm

>  <SCORE>
-54.6536

>  <SCORE.INTER>
-34.2997

>  <SCORE.INTER.CONST>
1

>  <SCORE.INTER.POLAR>
-4.86314

>  <SCORE.INTER.ROT>
2

>  <SCORE.INTER.SOLV>
12.1748

>  <SCORE.INTER.VDW>
-15.6476

>  <SCORE.INTER.norm>
-3.81108

>  <SCORE.INTRA>
-0.672446

>  <SCORE.INTRA.DIHEDRAL>
-0.539889

>  <SCORE.INTRA.DIHEDRAL.0>
1.66949

>  <SCORE.INTRA.POLAR>
0

>  <SCORE.INTRA.POLAR.0>
0

>  <SCORE.INTRA.REPUL>
0

>  <SCORE.INTRA.REPUL.0>
0

>  <SCORE.INTRA.SOLV>
0.00356869

>  <SCORE.INTRA.SOLV.lig_0>
-15.2558

>  <SCORE.INTRA.VDW>
-0.404286

>  <SCORE.INTRA.VDW.0>
0.11491

>  <SCORE.INTRA.norm>
-0.0747163

>  <SCORE.RESTR>
0

>  <SCORE.RESTR.CAVITY>
0

>  <SCORE.RESTR.norm>
0

>  <SCORE.SYSTEM>
-19.6814

>  <SCORE.SYSTEM.CONST>
0

>  <SCORE.SYSTEM.DIHEDRAL>
5.44691

>  <SCORE.SYSTEM.POLAR>
-3.05685

>  <SCORE.SYSTEM.SOLV>
0.240884

>  <SCORE.SYSTEM.VDW>
-4.82737

>  <SCORE.SYSTEM.norm>
-2.18682

>  <SCORE.heavy>
9

>  <SCORE.norm>
-6.07262

$$$$
P54927225
 OpenBabel12072022113D
libRbt.so/2013.1/901 2013/11/27
 14 14  0  0  0  0  0  0  0  0999 V2000
  -27.6051   12.9269  -18.2404 C   0  0  0  0  0  0  0  0  0  0  0  0
  -27.2467   13.1030  -16.7618 C   0  0  1  0  0  0  0  0  0  0  0  0
  -25.8470   13.7047  -16.5790 C   0  0  0  0  0  0  0  0  0  0  0  0
  -25.8041   15.1822  -16.9591 C   0  0  0  0  0  0  0  0  0  0  0  0
  -26.8887   15.9779  -16.2404 C   0  0  0  0  0  0  0  0  0  0  0  0
  -28.2100   15.3752  -16.3992 N   0  0  0  0  0  0  0  0  0  0  0  0
  -28.2980   13.9563  -16.0413 C   0  0  0  0  0  0  0  0  0  0  0  0
  -29.3010   16.2358  -16.2994 C   0  0  0  0  0  0  0  0  0  0  0  0
  -29.4449   17.2431  -16.9920 O   0  0  0  0  0  0  0  0  0  0  0  0
  -30.2458   15.8674  -15.3485 N   0  0  0  0  0  0  0  0  0  0  0  0
  -30.7099   16.8611  -14.4425 N   0  0  0  0  0  0  0  0  0  0  0  0
  -30.9443   15.2082  -15.6801 H   0  0  0  0  0  0  0  0  0  0  0  0
  -31.7241   16.7071  -14.3423 H   0  0  0  0  0  0  0  0  0  0  0  0
  -30.6615   17.7558  -14.9388 H   0  0  0  0  0  0  0  0  0  0  0  0
  2  1  1  6  0  0  0
  2  3  1  0  0  0  0
  2  7  1  0  0  0  0
  3  4  1  0  0  0  0
  4  5  1  0  0  0  0
  5  6  1  0  0  0  0
  6  7  1  0  0  0  0
  6  8  1  0  0  0  0
  8  9  2  0  0  0  0
  8 10  1  0  0  0  0
 10 11  1  0  0  0  0
 10 12  1  0  0  0  0
 11 13  1  0  0  0  0
 11 14  1  0  0  0  0
M  END
>  <CHROM.0>
-63.84691061,-69.76367103,-72.89731365,-43.31639178,-52.44570331,-175.14019839
-169.48754416,-176.72836999,-168.99231927

>  <CHROM.1>
55.72083123,131.95317858,139.45298573,-28.20576109,15.16863940,-16.38280507
0.71288422,-0.28889373,-2.95293734

>  <Name>
P54927225

>  <RI>
0

>  <Rbt.Current_Directory>
/home/fstefaniak/projects/zuza/docking/adenine/4TZX

>  <Rbt.Executable>
rbdock ($Id: //depot/dev/client3/rdock/2013.1/src/exe/rbdock.cxx#4 $)

>  <Rbt.Library>
libRbt.so (2013.1, Build901 2013/11/27)

>  <Rbt.Parameter_File>
/home/fstefaniak/progs/rDock//data/scripts/dock_solv.prm

>  <Rbt.Receptor>
4tzx.prm

>  <SCORE>
-46.849

>  <SCORE.INTER>
-25.8165

>  <SCORE.INTER.CONST>
1

>  <SCORE.INTER.POLAR>
-3.09253

>  <SCORE.INTER.ROT>
3

>  <SCORE.INTER.SOLV>
12.6678

>  <SCORE.INTER.VDW>
-16.7252

>  <SCORE.INTER.norm>
-2.34696

>  <SCORE.INTRA>
-0.851725

>  <SCORE.INTRA.DIHEDRAL>
0.0653174

>  <SCORE.INTRA.DIHEDRAL.0>
2.17921

>  <SCORE.INTRA.POLAR>
0

>  <SCORE.INTRA.POLAR.0>
0

>  <SCORE.INTRA.REPUL>
0

>  <SCORE.INTRA.REPUL.0>
0

>  <SCORE.INTRA.SOLV>
-0.0912639

>  <SCORE.INTRA.SOLV.lig_0>
-15.7169

>  <SCORE.INTRA.VDW>
-0.838751

>  <SCORE.INTRA.VDW.0>
0.6324

>  <SCORE.INTRA.norm>
-0.0774295

>  <SCORE.RESTR>
0

>  <SCORE.RESTR.CAVITY>
0

>  <SCORE.RESTR.norm>
0

>  <SCORE.SYSTEM>
-20.1807

>  <SCORE.SYSTEM.CONST>
0

>  <SCORE.SYSTEM.DIHEDRAL>
6.06308

>  <SCORE.SYSTEM.POLAR>
-3.02229

>  <SCORE.SYSTEM.SOLV>
-0.102673

>  <SCORE.SYSTEM.VDW>
-5.3663

>  <SCORE.SYSTEM.norm>
-1.83461

>  <SCORE.heavy>
11

>  <SCORE.norm>
-4.259

$$$$
P54927225
 OpenBabel12072022113D
libRbt.so/2013.1/901 2013/11/27
 14 14  0  0  0  0  0  0  0  0999 V2000
  -27.6342   13.0836  -18.2269 C   0  0  0  0  0  0  0  0  0  0  0  0
  -27.2511   13.2495  -16.7534 C   0  0  1  0  0  0  0  0  0  0  0  0
  -25.8558   13.8668  -16.5898 C   0  0  0  0  0  0  0  0  0  0  0  0
  -25.8381   15.3484  -16.9556 C   0  0  0  0  0  0  0  0  0  0  0  0
  -26.9191   16.1233  -16.2094 C   0  0  0  0  0  0  0  0  0  0  0  0
  -28.2355   15.5057  -16.3504 N   0  0  0  0  0  0  0  0  0  0  0  0
  -28.2995   14.0823  -16.0053 C   0  0  0  0  0  0  0  0  0  0  0  0
  -29.3350   16.3516  -16.2221 C   0  0  0  0  0  0  0  0  0  0  0  0
  -29.4693   17.4011  -16.8510 O   0  0  0  0  0  0  0  0  0  0  0  0
  -30.3001   15.9165  -15.3211 N   0  0  0  0  0  0  0  0  0  0  0  0
  -30.8635   16.8694  -14.4277 N   0  0  0  0  0  0  0  0  0  0  0  0
  -30.9426   15.2223  -15.6925 H   0  0  0  0  0  0  0  0  0  0  0  0
  -31.5354   17.4205  -14.9820 H   0  0  0  0  0  0  0  0  0  0  0  0
  -30.1255   17.5486  -14.2201 H   0  0  0  0  0  0  0  0  0  0  0  0
  2  1  1  6  0  0  0
  2  3  1  0  0  0  0
  2  7  1  0  0  0  0
  3  4  1  0  0  0  0
  4  5  1  0  0  0  0
  5  6  1  0  0  0  0
  6  7  1  0  0  0  0
  6  8  1  0  0  0  0
  8  9  2  0  0  0  0
  8 10  1  0  0  0  0
 10 11  1  0  0  0  0
 10 12  1  0  0  0  0
 11 13  1  0  0  0  0
 11 14  1  0  0  0  0
M  END
>  <CHROM.0>
-55.69700639,-172.67024997,61.77402197,-42.06170179,-53.80873901,-60.14544243
-173.11020428,58.86741168,-168.92278902

>  <CHROM.1>
51.69862677,136.39189103,76.68838378,-28.23679812,15.29424101,-16.34669967
0.69573038,-0.29401693,-2.94602915

>  <Name>
P54927225

>  <RI>
0

>  <Rbt.Current_Directory>
/home/fstefaniak/projects/zuza/docking/adenine/4TZX

>  <Rbt.Executable>
rbdock ($Id: //depot/dev/client3/rdock/2013.1/src/exe/rbdock.cxx#4 $)

>  <Rbt.Library>
libRbt.so (2013.1, Build901 2013/11/27)

>  <Rbt.Parameter_File>
/home/fstefaniak/progs/rDock//data/scripts/dock_solv.prm

>  <Rbt.Receptor>
4tzx.prm

>  <SCORE>
-44.4234

>  <SCORE.INTER>
-26.6992

>  <SCORE.INTER.CONST>
1

>  <SCORE.INTER.POLAR>
-3.12549

>  <SCORE.INTER.ROT>
3

>  <SCORE.INTER.SOLV>
12.5978

>  <SCORE.INTER.VDW>
-17.1804

>  <SCORE.INTER.norm>
-2.4272

>  <SCORE.INTRA>
-1.2502

>  <SCORE.INTRA.DIHEDRAL>
-0.955686

>  <SCORE.INTRA.DIHEDRAL.0>
2.17921

>  <SCORE.INTRA.POLAR>
0

>  <SCORE.INTRA.POLAR.0>
0

>  <SCORE.INTRA.REPUL>
0

>  <SCORE.INTRA.REPUL.0>
0

>  <SCORE.INTRA.SOLV>
-0.00564881

>  <SCORE.INTRA.SOLV.lig_0>
-15.7169

>  <SCORE.INTRA.VDW>
-0.769533

>  <SCORE.INTRA.VDW.0>
0.6324

>  <SCORE.INTRA.norm>
-0.113655

>  <SCORE.RESTR>
0

>  <SCORE.RESTR.CAVITY>
0

>  <SCORE.RESTR.norm>
0

>  <SCORE.SYSTEM>
-16.474

>  <SCORE.SYSTEM.CONST>
0

>  <SCORE.SYSTEM.DIHEDRAL>
4.84622

>  <SCORE.SYSTEM.POLAR>
-2.58363

>  <SCORE.SYSTEM.SOLV>
-0.122477

>  <SCORE.SYSTEM.VDW>
-3.94517

>  <SCORE.SYSTEM.norm>
-1.49764

>  <SCORE.heavy>
11

>  <SCORE.norm>
-4.03849

$$$$
P54927225
 OpenBabel12072022113D
libRbt.so/2013.1/901 2013/11/27
 14 14  0  0  0  0  0  0  0  0999 V2000
  -27.5713   12.8972  -18.2532 C   0  0  0  0  0  0  0  0  0  0  0  0
  -27.1684   13.0710  -16.7859 C   0  0  1  0  0  0  0  0  0  0  0  0
  -25.7914   13.7332  -16.6440 C   0  0  0  0  0  0  0  0  0  0  0  0
  -25.8284   15.2157  -17.0048 C   0  0  0  0  0  0  0  0  0  0  0  0
  -26.9210   15.9526  -16.2374 C   0  0  0  0  0  0  0  0  0  0  0  0
  -28.2188   15.2927  -16.3579 N   0  0  0  0  0  0  0  0  0  0  0  0
  -28.2304   13.8669  -16.0169 C   0  0  0  0  0  0  0  0  0  0  0  0
  -29.3430   16.1018  -16.2078 C   0  0  0  0  0  0  0  0  0  0  0  0
  -29.9485   16.2434  -15.1456 O   0  0  0  0  0  0  0  0  0  0  0  0
  -29.7405   16.7636  -17.3639 N   0  0  0  0  0  0  0  0  0  0  0  0
  -30.3779   18.0280  -17.2288 N   0  0  0  0  0  0  0  0  0  0  0  0
  -29.0977   16.6719  -18.1456 H   0  0  0  0  0  0  0  0  0  0  0  0
  -29.6362   18.6982  -16.9775 H   0  0  0  0  0  0  0  0  0  0  0  0
  -30.9437   17.9815  -16.3762 H   0  0  0  0  0  0  0  0  0  0  0  0
  2  1  1  6  0  0  0
  2  3  1  0  0  0  0
  2  7  1  0  0  0  0
  3  4  1  0  0  0  0
  4  5  1  0  0  0  0
  5  6  1  0  0  0  0
  6  7  1  0  0  0  0
  6  8  1  0  0  0  0
  8  9  2  0  0  0  0
  8 10  1  0  0  0  0
 10 11  1  0  0  0  0
 10 12  1  0  0  0  0
 11 13  1  0  0  0  0
 11 14  1  0  0  0  0
M  END
>  <CHROM.0>
-61.90654826,-64.18042747,-71.38492418,-44.65965227,-57.08145884,-61.53343340
-171.01558663,-58.89867011,-168.76921542

>  <CHROM.1>
-95.07271190,-149.60867714,74.19365014,-28.14735217,15.24650523,-16.66459862
0.80957553,0.00191383,-3.00484136

>  <Name>
P54927225

>  <RI>
0

>  <Rbt.Current_Directory>
/home/fstefaniak/projects/zuza/docking/adenine/4TZX

>  <Rbt.Executable>
rbdock ($Id: //depot/dev/client3/rdock/2013.1/src/exe/rbdock.cxx#4 $)

>  <Rbt.Library>
libRbt.so (2013.1, Build901 2013/11/27)

>  <Rbt.Parameter_File>
/home/fstefaniak/progs/rDock//data/scripts/dock_solv.prm

>  <Rbt.Receptor>
4tzx.prm

>  <SCORE>
-43.3802

>  <SCORE.INTER>
-20.7523

>  <SCORE.INTER.CONST>
1

>  <SCORE.INTER.POLAR>
-2.09684

>  <SCORE.INTER.ROT>
3

>  <SCORE.INTER.SOLV>
11.5396

>  <SCORE.INTER.VDW>
-16.2919

>  <SCORE.INTER.norm>
-1.88657

>  <SCORE.INTRA>
-2.07518

>  <SCORE.INTRA.DIHEDRAL>
-1.0016

>  <SCORE.INTRA.DIHEDRAL.0>
2.17921

>  <SCORE.INTRA.POLAR>
0

>  <SCORE.INTRA.POLAR.0>
0

>  <SCORE.INTRA.REPUL>
0

>  <SCORE.INTRA.REPUL.0>
0

>  <SCORE.INTRA.SOLV>
-0.0600562

>  <SCORE.INTRA.SOLV.lig_0>
-15.7169

>  <SCORE.INTRA.VDW>
-1.54435

>  <SCORE.INTRA.VDW.0>
0.6324

>  <SCORE.INTRA.norm>
-0.188653

>  <SCORE.RESTR>
0

>  <SCORE.RESTR.CAVITY>
0

>  <SCORE.RESTR.norm>
0

>  <SCORE.SYSTEM>
-20.5527

>  <SCORE.SYSTEM.CONST>
0

>  <SCORE.SYSTEM.DIHEDRAL>
4.84049

>  <SCORE.SYSTEM.POLAR>
-2.98936

>  <SCORE.SYSTEM.SOLV>
0.152022

>  <SCORE.SYSTEM.VDW>
-5.40146

>  <SCORE.SYSTEM.norm>
-1.86843

>  <SCORE.heavy>
11

>  <SCORE.norm>
-3.94366

$$$$
P55398921
 OpenBabel12072022113D
libRbt.so/2013.1/901 2013/11/27
 16 16  0  0  0  0  0  0  0  0999 V2000
  -27.8182   12.4831  -16.7078 C   0  0  0  0  0  0  0  0  0  0  0  0
  -27.3785   13.9295  -16.9262 C   0  0  2  0  0  0  0  0  0  0  0  0
  -25.8563   14.0602  -16.7863 C   0  0  0  0  0  0  0  0  0  0  0  0
  -25.3960   15.5074  -16.9418 C   0  0  0  0  0  0  0  0  0  0  0  0
  -26.1241   16.4404  -15.9782 C   0  0  0  0  0  0  0  0  0  0  0  0
  -27.6466   16.3220  -16.1246 C   0  0  1  0  0  0  0  0  0  0  0  0
  -28.0994   14.8678  -15.9491 C   0  0  0  0  0  0  0  0  0  0  0  0
  -28.3358   17.1768  -15.1681 N   0  0  0  0  0  0  0  0  0  0  0  0
  -29.6749   17.4544  -15.3047 C   0  0  0  0  0  0  0  0  0  0  0  0
  -30.2064   17.8625  -16.3308 O   0  0  0  0  0  0  0  0  0  0  0  0
  -30.3682   17.2092  -14.1256 N   0  0  0  0  0  0  0  0  0  0  0  0
  -29.9337   17.8563  -12.9407 N   0  0  0  0  0  0  0  0  0  0  0  0
  -27.7919   17.9033  -14.7252 H   0  0  0  0  0  0  0  0  0  0  0  0
  -31.3686   17.0599  -14.2258 H   0  0  0  0  0  0  0  0  0  0  0  0
  -30.6370   17.6462  -12.2183 H   0  0  0  0  0  0  0  0  0  0  0  0
  -30.0547   18.8626  -13.0913 H   0  0  0  0  0  0  0  0  0  0  0  0
  2  3  1  0  0  0  0
  2  7  1  0  0  0  0
  2  1  1  1  0  0  0
  3  4  1  0  0  0  0
  4  5  1  0  0  0  0
  5  6  1  0  0  0  0
  6  7  1  0  0  0  0
  6  8  1  1  0  0  0
  8  9  1  0  0  0  0
  8 13  1  0  0  0  0
  9 10  2  0  0  0  0
  9 11  1  0  0  0  0
 11 12  1  0  0  0  0
 11 14  1  0  0  0  0
 12 15  1  0  0  0  0
 12 16  1  0  0  0  0
M  END
>  <CHROM.0>
-56.44013756,-173.47088650,-63.12412630,-43.56699147,-64.42050658,-65.79371387
-66.11188288,57.49259262,-169.52639685

>  <CHROM.1>
165.72646654,-50.81352951,55.51360493,172.83572664,-28.12469768,15.96939427
-15.73084011,0.84434979,-0.33987191,-2.84002784

>  <Name>
P55398921

>  <RI>
0

>  <Rbt.Current_Directory>
/home/fstefaniak/projects/zuza/docking/adenine/4TZX

>  <Rbt.Executable>
rbdock ($Id: //depot/dev/client3/rdock/2013.1/src/exe/rbdock.cxx#4 $)

>  <Rbt.Library>
libRbt.so (2013.1, Build901 2013/11/27)

>  <Rbt.Parameter_File>
/home/fstefaniak/progs/rDock//data/scripts/dock_solv.prm

>  <Rbt.Receptor>
4tzx.prm

>  <SCORE>
-51.0925

>  <SCORE.INTER>
-31.0624

>  <SCORE.INTER.CONST>
1

>  <SCORE.INTER.POLAR>
-4.00676

>  <SCORE.INTER.ROT>
4

>  <SCORE.INTER.SOLV>
12.8226

>  <SCORE.INTER.VDW>
-17.8932

>  <SCORE.INTER.norm>
-2.58853

>  <SCORE.INTRA>
-0.0802122

>  <SCORE.INTRA.DIHEDRAL>
0.00155763

>  <SCORE.INTRA.DIHEDRAL.0>
2.47612

>  <SCORE.INTRA.POLAR>
0

>  <SCORE.INTRA.POLAR.0>
0

>  <SCORE.INTRA.REPUL>
0

>  <SCORE.INTRA.REPUL.0>
0

>  <SCORE.INTRA.SOLV>
0.240184

>  <SCORE.INTRA.SOLV.lig_0>
-16.4729

>  <SCORE.INTRA.VDW>
-0.201083

>  <SCORE.INTRA.VDW.0>
-0.530937

>  <SCORE.INTRA.norm>
-0.00668435

>  <SCORE.RESTR>
0

>  <SCORE.RESTR.CAVITY>
0

>  <SCORE.RESTR.norm>
0

>  <SCORE.SYSTEM>
-19.9499

>  <SCORE.SYSTEM.CONST>
0

>  <SCORE.SYSTEM.DIHEDRAL>
4.5705

>  <SCORE.SYSTEM.POLAR>
-3.05563

>  <SCORE.SYSTEM.SOLV>
-0.0222427

>  <SCORE.SYSTEM.VDW>
-4.63057

>  <SCORE.SYSTEM.norm>
-1.66249

>  <SCORE.heavy>
12

>  <SCORE.norm>
-4.25771

$$$$
P55398921
 OpenBabel12072022113D
libRbt.so/2013.1/901 2013/11/27
 16 16  0  0  0  0  0  0  0  0999 V2000
  -25.0352   16.7188  -16.4610 C   0  0  0  0  0  0  0  0  0  0  0  0
  -26.0622   15.6840  -16.0053 C   0  0  2  0  0  0  0  0  0  0  0  0
  -25.8220   14.3386  -16.7025 C   0  0  0  0  0  0  0  0  0  0  0  0
  -26.8716   13.3022  -16.3091 C   0  0  0  0  0  0  0  0  0  0  0  0
  -28.2895   13.8097  -16.5558 C   0  0  0  0  0  0  0  0  0  0  0  0
  -28.5376   15.1486  -15.8491 C   0  0  1  0  0  0  0  0  0  0  0  0
  -27.4887   16.1866  -16.2649 C   0  0  0  0  0  0  0  0  0  0  0  0
  -29.8748   15.6523  -16.1295 N   0  0  0  0  0  0  0  0  0  0  0  0
  -30.2098   16.9574  -15.8587 C   0  0  0  0  0  0  0  0  0  0  0  0
  -30.0059   17.9050  -16.6087 O   0  0  0  0  0  0  0  0  0  0  0  0
  -30.8218   17.0785  -14.6170 N   0  0  0  0  0  0  0  0  0  0  0  0
  -30.0307   17.4846  -13.5120 N   0  0  0  0  0  0  0  0  0  0  0  0
  -30.6374   14.9934  -16.0654 H   0  0  0  0  0  0  0  0  0  0  0  0
  -31.7872   17.3961  -14.6308 H   0  0  0  0  0  0  0  0  0  0  0  0
  -30.1190   18.5089  -13.4502 H   0  0  0  0  0  0  0  0  0  0  0  0
  -29.0516   17.3561  -13.7855 H   0  0  0  0  0  0  0  0  0  0  0  0
  2  3  1  0  0  0  0
  2  7  1  0  0  0  0
  2  1  1  6  0  0  0
  3  4  1  0  0  0  0
  4  5  1  0  0  0  0
  5  6  1  0  0  0  0
  6  7  1  0  0  0  0
  6  8  1  6  0  0  0
  8  9  1  0  0  0  0
  8 13  1  0  0  0  0
  9 10  2  0  0  0  0
  9 11  1  0  0  0  0
 11 12  1  0  0  0  0
 11 14  1  0  0  0  0
 12 15  1  0  0  0  0
 12 16  1  0  0  0  0
M  END
>  <CHROM.0>
-63.04202534,39.05465717,-72.34887459,-44.35067870,-176.91590491,-61.58869751
-171.68725546,-58.86839680,-168.47669557

>  <CHROM.1>
-165.17699485,84.91734310,98.09548041,92.93750805,-28.29340374,15.90455207
-15.88469224,-0.55994805,0.19237798,0.22919553

>  <Name>
P55398921

>  <RI>
0

>  <Rbt.Current_Directory>
/home/fstefaniak/projects/zuza/docking/adenine/4TZX

>  <Rbt.Executable>
rbdock ($Id: //depot/dev/client3/rdock/2013.1/src/exe/rbdock.cxx#4 $)

>  <Rbt.Library>
libRbt.so (2013.1, Build901 2013/11/27)

>  <Rbt.Parameter_File>
/home/fstefaniak/progs/rDock//data/scripts/dock_solv.prm

>  <Rbt.Receptor>
4tzx.prm

>  <SCORE>
-50.6552

>  <SCORE.INTER>
-31.4444

>  <SCORE.INTER.CONST>
1

>  <SCORE.INTER.POLAR>
-3.48187

>  <SCORE.INTER.ROT>
4

>  <SCORE.INTER.SOLV>
13.1414

>  <SCORE.INTER.VDW>
-20.0038

>  <SCORE.INTER.norm>
-2.62037

>  <SCORE.INTRA>
0.248407

>  <SCORE.INTRA.DIHEDRAL>
-0.514722

>  <SCORE.INTRA.DIHEDRAL.0>
2.47612

>  <SCORE.INTRA.POLAR>
0

>  <SCORE.INTRA.POLAR.0>
0

>  <SCORE.INTRA.REPUL>
0

>  <SCORE.INTRA.REPUL.0>
0

>  <SCORE.INTRA.SOLV>
0.625775

>  <SCORE.INTRA.SOLV.lig_0>
-16.4729

>  <SCORE.INTRA.VDW>
0.19288

>  <SCORE.INTRA.VDW.0>
-0.530937

>  <SCORE.INTRA.norm>
0.0207006

>  <SCORE.RESTR>
0

>  <SCORE.RESTR.CAVITY>
0

>  <SCORE.RESTR.norm>
0

>  <SCORE.SYSTEM>
-19.4592

>  <SCORE.SYSTEM.CONST>
0

>  <SCORE.SYSTEM.DIHEDRAL>
6.81917

>  <SCORE.SYSTEM.POLAR>
-3.10453

>  <SCORE.SYSTEM.SOLV>
0.0899714

>  <SCORE.SYSTEM.VDW>
-4.92739

>  <SCORE.SYSTEM.norm>
-1.6216

>  <SCORE.heavy>
12

>  <SCORE.norm>
-4.22126

$$$$
P55398921
 OpenBabel12072022113D
libRbt.so/2013.1/901 2013/11/27
 16 16  0  0  0  0  0  0  0  0999 V2000
  -25.0370   16.6506  -16.5668 C   0  0  0  0  0  0  0  0  0  0  0  0
  -26.0619   15.6145  -16.1092 C   0  0  2  0  0  0  0  0  0  0  0  0
  -25.8723   14.2936  -16.8664 C   0  0  0  0  0  0  0  0  0  0  0  0
  -26.9222   13.2586  -16.4702 C   0  0  0  0  0  0  0  0  0  0  0  0
  -28.3404   13.7966  -16.6390 C   0  0  0  0  0  0  0  0  0  0  0  0
  -28.5375   15.1107  -15.8723 C   0  0  1  0  0  0  0  0  0  0  0  0
  -27.4891   16.1482  -16.2908 C   0  0  0  0  0  0  0  0  0  0  0  0
  -29.8763   15.6450  -16.0782 N   0  0  0  0  0  0  0  0  0  0  0  0
  -30.2817   16.7982  -15.4500 C   0  0  0  0  0  0  0  0  0  0  0  0
  -30.3227   16.9594  -14.2358 O   0  0  0  0  0  0  0  0  0  0  0  0
  -30.6406   17.7783  -16.3675 N   0  0  0  0  0  0  0  0  0  0  0  0
  -31.8882   18.4323  -16.2022 N   0  0  0  0  0  0  0  0  0  0  0  0
  -30.6126   14.9804  -16.2680 H   0  0  0  0  0  0  0  0  0  0  0  0
  -29.8760   18.3365  -16.7375 H   0  0  0  0  0  0  0  0  0  0  0  0
  -32.6007   17.6912  -16.1404 H   0  0  0  0  0  0  0  0  0  0  0  0
  -32.1062   18.8847  -17.0954 H   0  0  0  0  0  0  0  0  0  0  0  0
  2  3  1  0  0  0  0
  2  7  1  0  0  0  0
  2  1  1  6  0  0  0
  3  4  1  0  0  0  0
  4  5  1  0  0  0  0
  5  6  1  0  0  0  0
  6  7  1  0  0  0  0
  6  8  1  6  0  0  0
  8  9  1  0  0  0  0
  8 13  1  0  0  0  0
  9 10  2  0  0  0  0
  9 11  1  0  0  0  0
 11 12  1  0  0  0  0
 11 14  1  0  0  0  0
 12 15  1  0  0  0  0
 12 16  1  0  0  0  0
M  END
>  <CHROM.0>
-61.62319099,-176.36462840,58.59728007,-43.42572984,179.35790522,-63.86747625
55.15887244,60.33462772,-167.51756159

>  <CHROM.1>
178.03374520,-59.56713363,129.94026234,-53.36826297,-28.49906173,15.92322650
-16.09677530,-0.52349397,0.13780612,0.04792589

>  <Name>
P55398921

>  <RI>
0

>  <Rbt.Current_Directory>
/home/fstefaniak/projects/zuza/docking/adenine/4TZX

>  <Rbt.Executable>
rbdock ($Id: //depot/dev/client3/rdock/2013.1/src/exe/rbdock.cxx#4 $)

>  <Rbt.Library>
libRbt.so (2013.1, Build901 2013/11/27)

>  <Rbt.Parameter_File>
/home/fstefaniak/progs/rDock//data/scripts/dock_solv.prm

>  <Rbt.Receptor>
4tzx.prm

>  <SCORE>
-50.6168

>  <SCORE.INTER>
-31.9799

>  <SCORE.INTER.CONST>
1

>  <SCORE.INTER.POLAR>
-3.44428

>  <SCORE.INTER.ROT>
4

>  <SCORE.INTER.SOLV>
13.4126

>  <SCORE.INTER.VDW>
-20.5766

>  <SCORE.INTER.norm>
-2.665

>  <SCORE.INTRA>
-0.455541

>  <SCORE.INTRA.DIHEDRAL>
-0.665903

>  <SCORE.INTRA.DIHEDRAL.0>
2.47612

>  <SCORE.INTRA.POLAR>
0

>  <SCORE.INTRA.POLAR.0>
0

>  <SCORE.INTRA.REPUL>
0

>  <SCORE.INTRA.REPUL.0>
0

>  <SCORE.INTRA.SOLV>
0.0256408

>  <SCORE.INTRA.SOLV.lig_0>
-16.4729

>  <SCORE.INTRA.VDW>
-0.13541

>  <SCORE.INTRA.VDW.0>
-0.530937

>  <SCORE.INTRA.norm>
-0.0379617

>  <SCORE.RESTR>
0

>  <SCORE.RESTR.CAVITY>
0

>  <SCORE.RESTR.norm>
0

>  <SCORE.SYSTEM>
-18.1813

>  <SCORE.SYSTEM.CONST>
0

>  <SCORE.SYSTEM.DIHEDRAL>
4.30378

>  <SCORE.SYSTEM.POLAR>
-3.01232

>  <SCORE.SYSTEM.SOLV>
-0.315893

>  <SCORE.SYSTEM.VDW>
-3.40913

>  <SCORE.SYSTEM.norm>
-1.51511

>  <SCORE.heavy>
12

>  <SCORE.norm>
-4.21807

$$$$
P55709751
 OpenBabel12072022113D
libRbt.so/2013.1/901 2013/11/27
 14 14  0  0  0  0  0  0  0  0999 V2000
  -25.5972   14.2047  -16.3968 C   0  0  0  0  0  0  0  0  0  0  0  0
  -26.0982   15.5845  -15.9770 C   0  0  0  0  0  0  0  0  0  0  0  0
  -25.0615   16.6563  -16.2987 C   0  0  0  0  0  0  0  0  0  0  0  0
  -27.3577   15.8907  -16.6362 N   0  0  0  0  0  0  0  0  0  0  0  0
  -28.3703   16.5694  -16.0054 C   0  0  0  0  0  0  0  0  0  0  0  0
  -28.2806   17.0175  -14.8693 O   0  0  0  0  0  0  0  0  0  0  0  0
  -29.6505   16.7539  -16.7446 C   0  0  2  0  0  0  0  0  0  0  0  0
  -30.1835   18.1040  -17.1534 C   0  0  0  0  0  0  0  0  0  0  0  0
  -30.9234   17.2842  -16.1203 C   0  0  2  0  0  0  0  0  0  0  0  0
  -30.9866   17.7262  -14.7167 C   0  0  0  0  0  0  0  0  0  0  0  0
  -30.5791   17.0736  -13.7691 O   0  0  0  0  0  0  0  0  0  0  0  0
  -31.5567   18.9338  -14.5698 O   0  0  0  0  0  0  0  0  0  0  0  0
  -27.4867   15.5702  -17.5915 H   0  0  0  0  0  0  0  0  0  0  0  0
  -31.5572   19.0908  -13.6031 H   0  0  0  0  0  0  0  0  0  0  0  0
  1  2  1  0  0  0  0
  2  3  1  0  0  0  0
  2  4  1  0  0  0  0
  4  5  1  0  0  0  0
  4 13  1  0  0  0  0
  5  6  2  0  0  0  0
  7  8  1  0  0  0  0
  7  9  1  0  0  0  0
  7  5  1  1  0  0  0
  8  9  1  0  0  0  0
  9 10  1  1  0  0  0
 10 11  2  0  0  0  0
 10 12  1  0  0  0  0
 12 14  1  0  0  0  0
M  END
>  <CHROM.0>
-59.75421955,-61.86107533,-67.66049466,-43.74966229,-62.67956217,-178.32634170
-66.92340274,-62.05124061,-168.22073457

>  <CHROM.1>
142.52563118,-115.86562104,-49.85010285,178.45425100,-28.71359294,16.83316404
-15.72943653,-0.21661466,-0.45525013,1.58659457

>  <Name>
P55709751

>  <RI>
0

>  <Rbt.Current_Directory>
/home/fstefaniak/projects/zuza/docking/adenine/4TZX

>  <Rbt.Executable>
rbdock ($Id: //depot/dev/client3/rdock/2013.1/src/exe/rbdock.cxx#4 $)

>  <Rbt.Library>
libRbt.so (2013.1, Build901 2013/11/27)

>  <Rbt.Parameter_File>
/home/fstefaniak/progs/rDock//data/scripts/dock_solv.prm

>  <Rbt.Receptor>
4tzx.prm

>  <SCORE>
-53.8074

>  <SCORE.INTER>
-33.3493

>  <SCORE.INTER.CONST>
1

>  <SCORE.INTER.POLAR>
-3.76584

>  <SCORE.INTER.ROT>
3

>  <SCORE.INTER.SOLV>
11.9271

>  <SCORE.INTER.VDW>
-19.2557

>  <SCORE.INTER.norm>
-2.7791

>  <SCORE.INTRA>
0.500163

>  <SCORE.INTRA.DIHEDRAL>
0.552756

>  <SCORE.INTRA.DIHEDRAL.0>
5.04993

>  <SCORE.INTRA.POLAR>
0.0315301

>  <SCORE.INTRA.POLAR.0>
-0.0315301

>  <SCORE.INTRA.REPUL>
0

>  <SCORE.INTRA.REPUL.0>
0

>  <SCORE.INTRA.SOLV>
-0.890449

>  <SCORE.INTRA.SOLV.lig_0>
-12.8999

>  <SCORE.INTRA.VDW>
0.561807

>  <SCORE.INTRA.VDW.0>
-1.33916

>  <SCORE.INTRA.norm>
0.0416803

>  <SCORE.RESTR>
0

>  <SCORE.RESTR.CAVITY>
0

>  <SCORE.RESTR.norm>
0

>  <SCORE.SYSTEM>
-20.9583

>  <SCORE.SYSTEM.CONST>
0

>  <SCORE.SYSTEM.DIHEDRAL>
4.48736

>  <SCORE.SYSTEM.POLAR>
-3.03256

>  <SCORE.SYSTEM.SOLV>
0.0541663

>  <SCORE.SYSTEM.VDW>
-5.37752

>  <SCORE.SYSTEM.norm>
-1.74653

>  <SCORE.heavy>
12

>  <SCORE.norm>
-4.48395

$$$$
P55709751
 OpenBabel12072022113D
libRbt.so/2013.1/901 2013/11/27
 14 14  0  0  0  0  0  0  0  0999 V2000
  -25.5703   14.2260  -16.3377 C   0  0  0  0  0  0  0  0  0  0  0  0
  -26.0585   15.6323  -15.9984 C   0  0  0  0  0  0  0  0  0  0  0  0
  -25.0369   16.6782  -16.4338 C   0  0  0  0  0  0  0  0  0  0  0  0
  -27.3423   15.8914  -16.6303 N   0  0  0  0  0  0  0  0  0  0  0  0
  -28.3737   16.5109  -15.9698 C   0  0  0  0  0  0  0  0  0  0  0  0
  -28.2844   16.9423  -14.8273 O   0  0  0  0  0  0  0  0  0  0  0  0
  -29.6740   16.6489  -16.6835 C   0  0  2  0  0  0  0  0  0  0  0  0
  -30.2118   17.9685  -17.1771 C   0  0  0  0  0  0  0  0  0  0  0  0
  -30.9253   17.2340  -16.0644 C   0  0  2  0  0  0  0  0  0  0  0  0
  -30.9449   17.7804  -14.6968 C   0  0  0  0  0  0  0  0  0  0  0  0
  -30.5394   17.1862  -13.7107 O   0  0  0  0  0  0  0  0  0  0  0  0
  -31.4723   19.0143  -14.6300 O   0  0  0  0  0  0  0  0  0  0  0  0
  -27.4734   15.5824  -17.5891 H   0  0  0  0  0  0  0  0  0  0  0  0
  -31.3141   19.3009  -13.7069 H   0  0  0  0  0  0  0  0  0  0  0  0
  1  2  1  0  0  0  0
  2  3  1  0  0  0  0
  2  4  1  0  0  0  0
  4  5  1  0  0  0  0
  4 13  1  0  0  0  0
  5  6  2  0  0  0  0
  7  8  1  0  0  0  0
  7  9  1  0  0  0  0
  7  5  1  1  0  0  0
  8  9  1  0  0  0  0
  9 10  1  1  0  0  0
 10 11  2  0  0  0  0
 10 12  1  0  0  0  0
 12 14  1  0  0  0  0
M  END
>  <CHROM.0>
-57.06463859,-61.11884646,-51.15195978,-40.89844074,-173.32908084,-54.80122671
-69.13599121,-172.46851025,-168.16684561

>  <CHROM.1>
136.67634636,-109.68486517,-51.49327152,-172.54171069,-28.69359180,16.82976454
-15.72325183,-0.24761552,-0.44439672,1.52863664

>  <Name>
P55709751

>  <RI>
0

>  <Rbt.Current_Directory>
/home/fstefaniak/projects/zuza/docking/adenine/4TZX

>  <Rbt.Executable>
rbdock ($Id: //depot/dev/client3/rdock/2013.1/src/exe/rbdock.cxx#4 $)

>  <Rbt.Library>
libRbt.so (2013.1, Build901 2013/11/27)

>  <Rbt.Parameter_File>
/home/fstefaniak/progs/rDock//data/scripts/dock_solv.prm

>  <Rbt.Receptor>
4tzx.prm

>  <SCORE>
-53.4847

>  <SCORE.INTER>
-33.4133

>  <SCORE.INTER.CONST>
1

>  <SCORE.INTER.POLAR>
-3.77427

>  <SCORE.INTER.ROT>
3

>  <SCORE.INTER.SOLV>
11.9218

>  <SCORE.INTER.VDW>
-19.2686

>  <SCORE.INTER.norm>
-2.78444

>  <SCORE.INTRA>
0.616814

>  <SCORE.INTRA.DIHEDRAL>
0.80647

>  <SCORE.INTRA.DIHEDRAL.0>
5.04993

>  <SCORE.INTRA.POLAR>
0.0315301

>  <SCORE.INTRA.POLAR.0>
-0.0315301

>  <SCORE.INTRA.REPUL>
0

>  <SCORE.INTRA.REPUL.0>
0

>  <SCORE.INTRA.SOLV>
-0.888133

>  <SCORE.INTRA.SOLV.lig_0>
-12.8999

>  <SCORE.INTRA.VDW>
0.550443

>  <SCORE.INTRA.VDW.0>
-1.33916

>  <SCORE.INTRA.norm>
0.0514012

>  <SCORE.RESTR>
0

>  <SCORE.RESTR.CAVITY>
0

>  <SCORE.RESTR.norm>
0

>  <SCORE.SYSTEM>
-20.6882

>  <SCORE.SYSTEM.CONST>
0

>  <SCORE.SYSTEM.DIHEDRAL>
5.69472

>  <SCORE.SYSTEM.POLAR>
-3.18026

>  <SCORE.SYSTEM.SOLV>
-0.100247

>  <SCORE.SYSTEM.VDW>
-5.0561

>  <SCORE.SYSTEM.norm>
-1.72402

>  <SCORE.heavy>
12

>  <SCORE.norm>
-4.45706

$$$$
P55709751
 OpenBabel12072022113D
libRbt.so/2013.1/901 2013/11/27
 14 14  0  0  0  0  0  0  0  0999 V2000
  -25.5854   14.2446  -16.2192 C   0  0  0  0  0  0  0  0  0  0  0  0
  -26.0282   15.6845  -15.9706 C   0  0  0  0  0  0  0  0  0  0  0  0
  -24.9703   16.6673  -16.4625 C   0  0  0  0  0  0  0  0  0  0  0  0
  -27.2996   15.9461  -16.6262 N   0  0  0  0  0  0  0  0  0  0  0  0
  -28.3267   16.6060  -15.9989 C   0  0  0  0  0  0  0  0  0  0  0  0
  -28.2425   17.0732  -14.8702 O   0  0  0  0  0  0  0  0  0  0  0  0
  -29.6159   16.7441  -16.7326 C   0  0  2  0  0  0  0  0  0  0  0  0
  -30.1821   18.0719  -17.1691 C   0  0  0  0  0  0  0  0  0  0  0  0
  -30.8960   17.2606  -16.1113 C   0  0  2  0  0  0  0  0  0  0  0  0
  -30.9591   17.7344  -14.7181 C   0  0  0  0  0  0  0  0  0  0  0  0
  -30.5553   17.1018  -13.7555 O   0  0  0  0  0  0  0  0  0  0  0  0
  -31.5249   18.9472  -14.5992 O   0  0  0  0  0  0  0  0  0  0  0  0
  -27.4254   15.6080  -17.5759 H   0  0  0  0  0  0  0  0  0  0  0  0
  -31.4493   19.1627  -13.6468 H   0  0  0  0  0  0  0  0  0  0  0  0
  1  2  1  0  0  0  0
  2  3  1  0  0  0  0
  2  4  1  0  0  0  0
  4  5  1  0  0  0  0
  4 13  1  0  0  0  0
  5  6  2  0  0  0  0
  7  8  1  0  0  0  0
  7  9  1  0  0  0  0
  7  5  1  1  0  0  0
  8  9  1  0  0  0  0
  9 10  1  1  0  0  0
 10 11  2  0  0  0  0
 10 12  1  0  0  0  0
 12 14  1  0  0  0  0
M  END
>  <CHROM.0>
-56.16281315,-63.42509987,-71.18070422,-42.38801999,-175.01648032,-174.72006311
-171.88497948,-172.98202238,-168.12479623

>  <CHROM.1>
134.79860602,-115.27241353,-51.43176017,-176.36583462,-28.67488229,16.85745734
-15.72796953,-0.18754133,-0.45350076,1.64554583

>  <Name>
P55709751

>  <RI>
0

>  <Rbt.Current_Directory>
/home/fstefaniak/projects/zuza/docking/adenine/4TZX

>  <Rbt.Executable>
rbdock ($Id: //depot/dev/client3/rdock/2013.1/src/exe/rbdock.cxx#4 $)

>  <Rbt.Library>
libRbt.so (2013.1, Build901 2013/11/27)

>  <Rbt.Parameter_File>
/home/fstefaniak/progs/rDock//data/scripts/dock_solv.prm

>  <Rbt.Receptor>
4tzx.prm

>  <SCORE>
-53.3606

>  <SCORE.INTER>
-33.3655

>  <SCORE.INTER.CONST>
1

>  <SCORE.INTER.POLAR>
-3.73187

>  <SCORE.INTER.ROT>
3

>  <SCORE.INTER.SOLV>
11.9218

>  <SCORE.INTER.VDW>
-19.378

>  <SCORE.INTER.norm>
-2.78046

>  <SCORE.INTRA>
0.404107

>  <SCORE.INTRA.DIHEDRAL>
0.663027

>  <SCORE.INTRA.DIHEDRAL.0>
5.04993

>  <SCORE.INTRA.POLAR>
0.0315301

>  <SCORE.INTRA.POLAR.0>
-0.0315301

>  <SCORE.INTRA.REPUL>
0

>  <SCORE.INTRA.REPUL.0>
0

>  <SCORE.INTRA.SOLV>
-0.898632

>  <SCORE.INTRA.SOLV.lig_0>
-12.8999

>  <SCORE.INTRA.VDW>
0.414707

>  <SCORE.INTRA.VDW.0>
-1.33916

>  <SCORE.INTRA.norm>
0.0336756

>  <SCORE.RESTR>
0

>  <SCORE.RESTR.CAVITY>
0

>  <SCORE.RESTR.norm>
0

>  <SCORE.SYSTEM>
-20.3992

>  <SCORE.SYSTEM.CONST>
0

>  <SCORE.SYSTEM.DIHEDRAL>
5.56223

>  <SCORE.SYSTEM.POLAR>
-3.07166

>  <SCORE.SYSTEM.SOLV>
-0.271319

>  <SCORE.SYSTEM.VDW>
-5.12422

>  <SCORE.SYSTEM.norm>
-1.69993

>  <SCORE.heavy>
12

>  <SCORE.norm>
-4.44672

$$$$
P56031139
 OpenBabel12072022113D
libRbt.so/2013.1/901 2013/11/27
 14 14  0  0  0  0  0  0  0  0999 V2000
  -31.0869   18.9594  -17.4753 C   0  0  0  0  0  0  0  0  0  0  0  0
  -30.5885   17.7796  -16.7352 C   0  0  0  0  0  0  0  0  0  0  0  0
  -31.1028   17.2154  -15.5461 C   0  0  0  0  0  0  0  0  0  0  0  0
  -30.4223   16.1371  -15.1485 N   0  0  0  0  0  0  0  0  0  0  0  0
  -29.4513   16.0155  -16.0807 N   0  0  0  0  0  0  0  0  0  0  0  0
  -29.5143   16.9744  -17.0504 C   0  0  0  0  0  0  0  0  0  0  0  0
  -28.4923   14.9311  -15.9873 C   0  0  0  0  0  0  0  0  0  0  0  0
  -27.0826   15.4633  -16.1637 C   0  0  0  0  0  0  0  0  0  0  0  0
  -26.7656   16.5693  -15.5531 N   0  0  0  0  0  0  0  0  0  0  0  0
  -25.4448   16.9398  -15.8553 O   0  0  0  0  0  0  0  0  0  0  0  0
  -26.2162   14.7646  -16.9761 N   0  0  0  0  0  0  0  0  0  0  0  0
  -25.5749   17.7342  -16.4061 H   0  0  0  0  0  0  0  0  0  0  0  0
  -26.3023   15.0007  -17.9662 H   0  0  0  0  0  0  0  0  0  0  0  0
  -25.2626   14.8361  -16.6328 H   0  0  0  0  0  0  0  0  0  0  0  0
  1  2  1  0  0  0  0
  2  3  1  0  0  0  0
  2  6  2  0  0  0  0
  3  4  2  0  0  0  0
  4  5  1  0  0  0  0
  5  6  1  0  0  0  0
  5  7  1  0  0  0  0
  7  8  1  0  0  0  0
  8  9  2  0  0  0  0
  8 11  1  0  0  0  0
  9 10  1  0  0  0  0
 10 12  1  0  0  0  0
 11 13  1  0  0  0  0
 11 14  1  0  0  0  0
M  END
>  <CHROM.0>
-62.06372675,-72.25429612,-65.65322788,-43.19461270,-173.37912297,-56.01279662
-68.29030174,-61.27579497,-169.05479976

>  <CHROM.1>
-131.98742314,43.08017336,84.65587244,110.48123991,-28.63356173,16.52115711
-16.24580899,-2.75586726,-0.07847494,2.79654812

>  <Name>
P56031139

>  <RI>
0

>  <Rbt.Current_Directory>
/home/fstefaniak/projects/zuza/docking/adenine/4TZX

>  <Rbt.Executable>
rbdock ($Id: //depot/dev/client3/rdock/2013.1/src/exe/rbdock.cxx#4 $)

>  <Rbt.Library>
libRbt.so (2013.1, Build901 2013/11/27)

>  <Rbt.Parameter_File>
/home/fstefaniak/progs/rDock//data/scripts/dock_solv.prm

>  <Rbt.Receptor>
4tzx.prm

>  <SCORE>
-55.7898

>  <SCORE.INTER>
-34.8285

>  <SCORE.INTER.CONST>
1

>  <SCORE.INTER.POLAR>
-3.77538

>  <SCORE.INTER.ROT>
3

>  <SCORE.INTER.SOLV>
10.0276

>  <SCORE.INTER.VDW>
-19.5769

>  <SCORE.INTER.norm>
-3.16622

>  <SCORE.INTRA>
0.119087

>  <SCORE.INTRA.DIHEDRAL>
-1.70639

>  <SCORE.INTRA.DIHEDRAL.0>
6.22911

>  <SCORE.INTRA.POLAR>
0.281449

>  <SCORE.INTRA.POLAR.0>
-0.281449

>  <SCORE.INTRA.REPUL>
0

>  <SCORE.INTRA.REPUL.0>
0

>  <SCORE.INTRA.SOLV>
-0.226149

>  <SCORE.INTRA.SOLV.lig_0>
-10.5997

>  <SCORE.INTRA.VDW>
0.128429

>  <SCORE.INTRA.VDW.0>
-0.93

>  <SCORE.INTRA.norm>
0.0108261

>  <SCORE.RESTR>
0

>  <SCORE.RESTR.CAVITY>
0

>  <SCORE.RESTR.norm>
0

>  <SCORE.SYSTEM>
-21.0804

>  <SCORE.SYSTEM.CONST>
0

>  <SCORE.SYSTEM.DIHEDRAL>
5.37258

>  <SCORE.SYSTEM.POLAR>
-3.05002

>  <SCORE.SYSTEM.SOLV>
-0.0099543

>  <SCORE.SYSTEM.VDW>
-5.67441

>  <SCORE.SYSTEM.norm>
-1.9164

>  <SCORE.heavy>
11

>  <SCORE.norm>
-5.0718

$$$$
P56031139
 OpenBabel12072022113D
libRbt.so/2013.1/901 2013/11/27
 14 14  0  0  0  0  0  0  0  0999 V2000
  -26.1231   14.0921  -16.9143 C   0  0  0  0  0  0  0  0  0  0  0  0
  -27.3900   14.7754  -16.5733 C   0  0  0  0  0  0  0  0  0  0  0  0
  -28.6839   14.2154  -16.4772 C   0  0  0  0  0  0  0  0  0  0  0  0
  -29.6114   15.1121  -16.1318 N   0  0  0  0  0  0  0  0  0  0  0  0
  -28.9115   16.2630  -16.0205 N   0  0  0  0  0  0  0  0  0  0  0  0
  -27.5788   16.1078  -16.2726 C   0  0  0  0  0  0  0  0  0  0  0  0
  -29.5919   17.4888  -15.6480 C   0  0  0  0  0  0  0  0  0  0  0  0
  -30.5181   17.9326  -16.7645 C   0  0  0  0  0  0  0  0  0  0  0  0
  -31.6456   18.4962  -16.4362 N   0  0  0  0  0  0  0  0  0  0  0  0
  -32.3959   18.8057  -17.5827 O   0  0  0  0  0  0  0  0  0  0  0  0
  -30.1324   17.6989  -18.0667 N   0  0  0  0  0  0  0  0  0  0  0  0
  -32.3240   19.7777  -17.6193 H   0  0  0  0  0  0  0  0  0  0  0  0
  -29.3326   17.0690  -18.1504 H   0  0  0  0  0  0  0  0  0  0  0  0
  -30.9257   17.4099  -18.6317 H   0  0  0  0  0  0  0  0  0  0  0  0
  1  2  1  0  0  0  0
  2  3  1  0  0  0  0
  2  6  2  0  0  0  0
  3  4  2  0  0  0  0
  4  5  1  0  0  0  0
  5  6  1  0  0  0  0
  5  7  1  0  0  0  0
  7  8  1  0  0  0  0
  8  9  2  0  0  0  0
  8 11  1  0  0  0  0
  9 10  1  0  0  0  0
 10 12  1  0  0  0  0
 11 13  1  0  0  0  0
 11 14  1  0  0  0  0
M  END
>  <CHROM.0>
-62.13592600,-61.63890620,-69.18981653,-43.84707182,-52.36780451,-62.33419885
-66.69216152,-60.32088248,-169.48216742

>  <CHROM.1>
-68.43756815,144.47190250,11.94402921,-108.06446746,-29.39908591,16.51938903
-16.67200439,-0.41935561,0.63200345,-1.07430224

>  <Name>
P56031139

>  <RI>
0

>  <Rbt.Current_Directory>
/home/fstefaniak/projects/zuza/docking/adenine/4TZX

>  <Rbt.Executable>
rbdock ($Id: //depot/dev/client3/rdock/2013.1/src/exe/rbdock.cxx#4 $)

>  <Rbt.Library>
libRbt.so (2013.1, Build901 2013/11/27)

>  <Rbt.Parameter_File>
/home/fstefaniak/progs/rDock//data/scripts/dock_solv.prm

>  <Rbt.Receptor>
4tzx.prm

>  <SCORE>
-54.3595

>  <SCORE.INTER>
-33.7363

>  <SCORE.INTER.CONST>
1

>  <SCORE.INTER.POLAR>
-3.98196

>  <SCORE.INTER.ROT>
3

>  <SCORE.INTER.SOLV>
10.4868

>  <SCORE.INTER.VDW>
-18.3133

>  <SCORE.INTER.norm>
-3.06694

>  <SCORE.INTRA>
0.44664

>  <SCORE.INTRA.DIHEDRAL>
-1.83073

>  <SCORE.INTRA.DIHEDRAL.0>
6.22911

>  <SCORE.INTRA.POLAR>
0.281449

>  <SCORE.INTRA.POLAR.0>
-0.281449

>  <SCORE.INTRA.REPUL>
0

>  <SCORE.INTRA.REPUL.0>
0

>  <SCORE.INTRA.SOLV>
0.267554

>  <SCORE.INTRA.SOLV.lig_0>
-10.5997

>  <SCORE.INTRA.VDW>
0.271303

>  <SCORE.INTRA.VDW.0>
-0.93

>  <SCORE.INTRA.norm>
0.0406037

>  <SCORE.RESTR>
0

>  <SCORE.RESTR.CAVITY>
0

>  <SCORE.RESTR.norm>
0

>  <SCORE.SYSTEM>
-21.0698

>  <SCORE.SYSTEM.CONST>
0

>  <SCORE.SYSTEM.DIHEDRAL>
4.69233

>  <SCORE.SYSTEM.POLAR>
-3.02069

>  <SCORE.SYSTEM.SOLV>
0.178179

>  <SCORE.SYSTEM.VDW>
-5.60111

>  <SCORE.SYSTEM.norm>
-1.91544

>  <SCORE.heavy>
11

>  <SCORE.norm>
-4.94177

$$$$
P56031139
 OpenBabel12072022113D
libRbt.so/2013.1/901 2013/11/27
 14 14  0  0  0  0  0  0  0  0999 V2000
  -27.5564   13.1495  -17.3022 C   0  0  0  0  0  0  0  0  0  0  0  0
  -27.9162   14.4344  -16.6636 C   0  0  0  0  0  0  0  0  0  0  0  0
  -27.0493   15.4324  -16.1641 C   0  0  0  0  0  0  0  0  0  0  0  0
  -27.7042   16.4821  -15.6611 N   0  0  0  0  0  0  0  0  0  0  0  0
  -29.0043   16.1501  -15.8232 N   0  0  0  0  0  0  0  0  0  0  0  0
  -29.1780   14.9353  -16.4215 C   0  0  0  0  0  0  0  0  0  0  0  0
  -30.0428   17.0652  -15.3894 C   0  0  0  0  0  0  0  0  0  0  0  0
  -30.6872   17.7318  -16.5903 C   0  0  0  0  0  0  0  0  0  0  0  0
  -30.0686   17.6606  -17.7343 N   0  0  0  0  0  0  0  0  0  0  0  0
  -30.7776   18.3613  -18.7241 O   0  0  0  0  0  0  0  0  0  0  0  0
  -31.8806   18.3962  -16.4079 N   0  0  0  0  0  0  0  0  0  0  0  0
  -31.2774   17.6479  -19.1629 H   0  0  0  0  0  0  0  0  0  0  0  0
  -32.1491   18.9817  -17.2007 H   0  0  0  0  0  0  0  0  0  0  0  0
  -32.6130   17.7515  -16.1249 H   0  0  0  0  0  0  0  0  0  0  0  0
  1  2  1  0  0  0  0
  2  3  1  0  0  0  0
  2  6  2  0  0  0  0
  3  4  2  0  0  0  0
  4  5  1  0  0  0  0
  5  6  1  0  0  0  0
  5  7  1  0  0  0  0
  7  8  1  0  0  0  0
  8  9  2  0  0  0  0
  8 11  1  0  0  0  0
  9 10  1  0  0  0  0
 10 12  1  0  0  0  0
 11 13  1  0  0  0  0
 11 14  1  0  0  0  0
M  END
>  <CHROM.0>
-57.66341971,-178.22396233,62.99734277,-42.96550070,-60.29242114,-62.44828807
57.01345190,-61.93369607,-169.09776735

>  <CHROM.1>
105.97029188,-15.44444707,167.59838500,-97.37916908,-29.33644793,16.40682261
-16.67839992,0.09386229,0.83413767,-1.88201383

>  <Name>
P56031139

>  <RI>
0

>  <Rbt.Current_Directory>
/home/fstefaniak/projects/zuza/docking/adenine/4TZX

>  <Rbt.Executable>
rbdock ($Id: //depot/dev/client3/rdock/2013.1/src/exe/rbdock.cxx#4 $)

>  <Rbt.Library>
libRbt.so (2013.1, Build901 2013/11/27)

>  <Rbt.Parameter_File>
/home/fstefaniak/progs/rDock//data/scripts/dock_solv.prm

>  <Rbt.Receptor>
4tzx.prm

>  <SCORE>
-54.0934

>  <SCORE.INTER>
-35.0268

>  <SCORE.INTER.CONST>
1

>  <SCORE.INTER.POLAR>
-4.16582

>  <SCORE.INTER.ROT>
3

>  <SCORE.INTER.SOLV>
10.3136

>  <SCORE.INTER.VDW>
-18.503

>  <SCORE.INTER.norm>
-3.18426

>  <SCORE.INTRA>
-0.0686373

>  <SCORE.INTRA.DIHEDRAL>
-1.96638

>  <SCORE.INTRA.DIHEDRAL.0>
6.22911

>  <SCORE.INTRA.POLAR>
0.261244

>  <SCORE.INTRA.POLAR.0>
-0.281449

>  <SCORE.INTRA.REPUL>
0

>  <SCORE.INTRA.REPUL.0>
0

>  <SCORE.INTRA.SOLV>
-0.2886

>  <SCORE.INTRA.SOLV.lig_0>
-10.5997

>  <SCORE.INTRA.VDW>
0.170624

>  <SCORE.INTRA.VDW.0>
-0.93

>  <SCORE.INTRA.norm>
-0.00623976

>  <SCORE.RESTR>
0

>  <SCORE.RESTR.CAVITY>
0

>  <SCORE.RESTR.norm>
0

>  <SCORE.SYSTEM>
-18.9979

>  <SCORE.SYSTEM.CONST>
0

>  <SCORE.SYSTEM.DIHEDRAL>
4.11698

>  <SCORE.SYSTEM.POLAR>
-3.04853

>  <SCORE.SYSTEM.SOLV>
0.0469906

>  <SCORE.SYSTEM.VDW>
-3.89151

>  <SCORE.SYSTEM.norm>
-1.72708

>  <SCORE.heavy>
11

>  <SCORE.norm>
-4.91758

$$$$
P56076031
 OpenBabel12072022113D
libRbt.so/2013.1/901 2013/11/27
 15 15  0  0  0  0  0  0  0  0999 V2000
  -29.6626   17.7912  -17.8379 C   0  0  0  0  0  0  0  0  0  0  0  0
  -30.8103   18.2527  -18.4875 C   0  0  0  0  0  0  0  0  0  0  0  0
  -31.9897   18.4002  -17.7646 C   0  0  0  0  0  0  0  0  0  0  0  0
  -32.0421   18.0890  -16.4101 C   0  0  0  0  0  0  0  0  0  0  0  0
  -30.8961   17.6283  -15.7578 C   0  0  0  0  0  0  0  0  0  0  0  0
  -29.6967   17.4897  -16.4691 C   0  0  0  0  0  0  0  0  0  0  0  0
  -28.4479   17.0025  -15.8218 C   0  0  0  0  0  0  0  0  0  0  0  0
  -28.2403   17.2047  -14.6313 O   0  0  0  0  0  0  0  0  0  0  0  0
  -27.5769   16.2927  -16.6176 N   0  0  0  0  0  0  0  0  0  0  0  0
  -26.3822   15.7092  -16.0334 C   0  0  0  0  0  0  0  0  0  0  0  0
  -25.1576   16.2138  -16.6715 C   0  0  0  0  0  0  0  0  0  0  0  0
  -24.2095   16.6218  -17.2036 N   0  0  0  0  0  0  0  0  0  0  0  0
  -33.1342   18.8455  -18.3553 O   0  0  0  0  0  0  0  0  0  0  0  0
  -27.8893   15.9514  -17.5179 H   0  0  0  0  0  0  0  0  0  0  0  0
  -32.9041   19.3005  -19.1824 H   0  0  0  0  0  0  0  0  0  0  0  0
  1  2  2  0  0  0  0
  1  6  1  0  0  0  0
  2  3  1  0  0  0  0
  3  4  2  0  0  0  0
  3 13  1  0  0  0  0
  4  5  1  0  0  0  0
  5  6  2  0  0  0  0
  6  7  1  0  0  0  0
  7  8  2  0  0  0  0
  7  9  1  0  0  0  0
  9 10  1  0  0  0  0
  9 14  1  0  0  0  0
 10 11  1  0  0  0  0
 11 12  3  0  0  0  0
 13 15  1  0  0  0  0
M  END
>  <CHROM.0>
-59.21372038,-60.70201690,-65.93162872,-43.12833832,-173.15870949,-58.82250432
-67.91221503,-175.28462582,-168.92976995

>  <CHROM.1>
-19.34874725,151.75487879,-121.08774461,-29.11938394,17.35763880,-16.78189763
-2.90360579,-0.27457534,1.77525991

>  <Name>
P56076031

>  <RI>
0

>  <Rbt.Current_Directory>
/home/fstefaniak/projects/zuza/docking/adenine/4TZX

>  <Rbt.Executable>
rbdock ($Id: //depot/dev/client3/rdock/2013.1/src/exe/rbdock.cxx#4 $)

>  <Rbt.Library>
libRbt.so (2013.1, Build901 2013/11/27)

>  <Rbt.Parameter_File>
/home/fstefaniak/progs/rDock//data/scripts/dock_solv.prm

>  <Rbt.Receptor>
4tzx.prm

>  <SCORE>
-56.7537

>  <SCORE.INTER>
-36.1259

>  <SCORE.INTER.CONST>
1

>  <SCORE.INTER.POLAR>
-4.25995

>  <SCORE.INTER.ROT>
2

>  <SCORE.INTER.SOLV>
15.4105

>  <SCORE.INTER.VDW>
-19.9543

>  <SCORE.INTER.norm>
-2.77892

>  <SCORE.INTRA>
0.608711

>  <SCORE.INTRA.DIHEDRAL>
1.61049

>  <SCORE.INTRA.DIHEDRAL.0>
3.46659

>  <SCORE.INTRA.POLAR>
0

>  <SCORE.INTRA.POLAR.0>
0

>  <SCORE.INTRA.REPUL>
0

>  <SCORE.INTRA.REPUL.0>
0

>  <SCORE.INTRA.SOLV>
0.018143

>  <SCORE.INTRA.SOLV.lig_0>
-19.1899

>  <SCORE.INTRA.VDW>
-0.205607

>  <SCORE.INTRA.VDW.0>
-0.0507619

>  <SCORE.INTRA.norm>
0.0468239

>  <SCORE.RESTR>
0

>  <SCORE.RESTR.CAVITY>
0

>  <SCORE.RESTR.norm>
0

>  <SCORE.SYSTEM>
-21.2364

>  <SCORE.SYSTEM.CONST>
0

>  <SCORE.SYSTEM.DIHEDRAL>
4.70599

>  <SCORE.SYSTEM.POLAR>
-3.05306

>  <SCORE.SYSTEM.SOLV>
-0.12906

>  <SCORE.SYSTEM.VDW>
-5.50639

>  <SCORE.SYSTEM.norm>
-1.63357

>  <SCORE.heavy>
13

>  <SCORE.norm>
-4.36567

$$$$
P56076031
 OpenBabel12072022113D
libRbt.so/2013.1/901 2013/11/27
 15 15  0  0  0  0  0  0  0  0999 V2000
  -29.6547   17.7866  -17.8254 C   0  0  0  0  0  0  0  0  0  0  0  0
  -30.8064   18.2273  -18.4822 C   0  0  0  0  0  0  0  0  0  0  0  0
  -31.9856   18.3817  -17.7605 C   0  0  0  0  0  0  0  0  0  0  0  0
  -32.0339   18.0974  -16.3998 C   0  0  0  0  0  0  0  0  0  0  0  0
  -30.8838   17.6575  -15.7404 C   0  0  0  0  0  0  0  0  0  0  0  0
  -29.6847   17.5125  -16.4508 C   0  0  0  0  0  0  0  0  0  0  0  0
  -28.4316   17.0467  -15.7960 C   0  0  0  0  0  0  0  0  0  0  0  0
  -28.2618   17.1968  -14.5918 O   0  0  0  0  0  0  0  0  0  0  0  0
  -27.5115   16.4158  -16.6029 N   0  0  0  0  0  0  0  0  0  0  0  0
  -26.3067   15.8548  -16.0173 C   0  0  0  0  0  0  0  0  0  0  0  0
  -25.1008   16.2529  -16.7579 C   0  0  0  0  0  0  0  0  0  0  0  0
  -24.1684   16.5746  -17.3709 N   0  0  0  0  0  0  0  0  0  0  0  0
  -33.1340   18.8074  -18.3580 O   0  0  0  0  0  0  0  0  0  0  0  0
  -27.7869   16.1077  -17.5269 H   0  0  0  0  0  0  0  0  0  0  0  0
  -32.9052   19.2911  -19.1690 H   0  0  0  0  0  0  0  0  0  0  0  0
  1  2  2  0  0  0  0
  1  6  1  0  0  0  0
  2  3  1  0  0  0  0
  3  4  2  0  0  0  0
  3 13  1  0  0  0  0
  4  5  1  0  0  0  0
  5  6  2  0  0  0  0
  6  7  1  0  0  0  0
  7  8  2  0  0  0  0
  7  9  1  0  0  0  0
  9 10  1  0  0  0  0
  9 14  1  0  0  0  0
 10 11  1  0  0  0  0
 11 12  3  0  0  0  0
 13 15  1  0  0  0  0
M  END
>  <CHROM.0>
-59.83569853,-62.35530135,-63.51434405,-42.69442162,-59.45643936,-60.32090757
-68.38957892,-58.99938950,-167.73488638

>  <CHROM.1>
-22.52027136,156.55125347,-131.55866512,-29.09780480,17.37846043,-16.78863911
-2.92447668,-0.27111630,1.75479952

>  <Name>
P56076031

>  <RI>
0

>  <Rbt.Current_Directory>
/home/fstefaniak/projects/zuza/docking/adenine/4TZX

>  <Rbt.Executable>
rbdock ($Id: //depot/dev/client3/rdock/2013.1/src/exe/rbdock.cxx#4 $)

>  <Rbt.Library>
libRbt.so (2013.1, Build901 2013/11/27)

>  <Rbt.Parameter_File>
/home/fstefaniak/progs/rDock//data/scripts/dock_solv.prm

>  <Rbt.Receptor>
4tzx.prm

>  <SCORE>
-56.5444

>  <SCORE.INTER>
-35.7015

>  <SCORE.INTER.CONST>
1

>  <SCORE.INTER.POLAR>
-4.25028

>  <SCORE.INTER.ROT>
2

>  <SCORE.INTER.SOLV>
15.6936

>  <SCORE.INTER.VDW>
-19.7979

>  <SCORE.INTER.norm>
-2.74627

>  <SCORE.INTRA>
0.241881

>  <SCORE.INTRA.DIHEDRAL>
0.627802

>  <SCORE.INTRA.DIHEDRAL.0>
3.46659

>  <SCORE.INTRA.POLAR>
0

>  <SCORE.INTRA.POLAR.0>
0

>  <SCORE.INTRA.REPUL>
0

>  <SCORE.INTRA.REPUL.0>
0

>  <SCORE.INTRA.SOLV>
0.0201249

>  <SCORE.INTRA.SOLV.lig_0>
-19.1899

>  <SCORE.INTRA.VDW>
-0.0820824

>  <SCORE.INTRA.VDW.0>
-0.0507619

>  <SCORE.INTRA.norm>
0.0186062

>  <SCORE.RESTR>
0

>  <SCORE.RESTR.CAVITY>
0

>  <SCORE.RESTR.norm>
0

>  <SCORE.SYSTEM>
-21.0848

>  <SCORE.SYSTEM.CONST>
0

>  <SCORE.SYSTEM.DIHEDRAL>
4.52912

>  <SCORE.SYSTEM.POLAR>
-3.05949

>  <SCORE.SYSTEM.SOLV>
0.186978

>  <SCORE.SYSTEM.VDW>
-5.4303

>  <SCORE.SYSTEM.norm>
-1.62191

>  <SCORE.heavy>
13

>  <SCORE.norm>
-4.34957

$$$$
P56076031
 OpenBabel12072022113D
libRbt.so/2013.1/901 2013/11/27
 15 15  0  0  0  0  0  0  0  0999 V2000
  -29.6589   17.7810  -17.8387 C   0  0  0  0  0  0  0  0  0  0  0  0
  -30.8088   18.2324  -18.4914 C   0  0  0  0  0  0  0  0  0  0  0  0
  -31.9890   18.3786  -17.7697 C   0  0  0  0  0  0  0  0  0  0  0  0
  -32.0401   18.0758  -16.4132 C   0  0  0  0  0  0  0  0  0  0  0  0
  -30.8919   17.6251  -15.7578 C   0  0  0  0  0  0  0  0  0  0  0  0
  -29.6917   17.4882  -16.4680 C   0  0  0  0  0  0  0  0  0  0  0  0
  -28.4405   17.0115  -15.8175 C   0  0  0  0  0  0  0  0  0  0  0  0
  -28.2450   17.2012  -14.6228 O   0  0  0  0  0  0  0  0  0  0  0  0
  -27.5528   16.3255  -16.6156 N   0  0  0  0  0  0  0  0  0  0  0  0
  -26.3538   15.7526  -16.0298 C   0  0  0  0  0  0  0  0  0  0  0  0
  -25.1336   16.2527  -16.6795 C   0  0  0  0  0  0  0  0  0  0  0  0
  -24.1890   16.6569  -17.2209 N   0  0  0  0  0  0  0  0  0  0  0  0
  -33.1357   18.8142  -18.3634 O   0  0  0  0  0  0  0  0  0  0  0  0
  -27.8532   15.9913  -17.5226 H   0  0  0  0  0  0  0  0  0  0  0  0
  -32.9035   19.3405  -19.1463 H   0  0  0  0  0  0  0  0  0  0  0  0
  1  2  2  0  0  0  0
  1  6  1  0  0  0  0
  2  3  1  0  0  0  0
  3  4  2  0  0  0  0
  3 13  1  0  0  0  0
  4  5  1  0  0  0  0
  5  6  2  0  0  0  0
  6  7  1  0  0  0  0
  7  8  2  0  0  0  0
  7  9  1  0  0  0  0
  9 10  1  0  0  0  0
  9 14  1  0  0  0  0
 10 11  1  0  0  0  0
 11 12  3  0  0  0  0
 13 15  1  0  0  0  0
M  END
>  <CHROM.0>
-57.32310739,-60.93968972,-67.11101678,-42.69665267,-59.23998452,-62.09226844
-64.84284612,-58.02251263,-168.98843211

>  <CHROM.1>
-24.90270580,153.08198414,-122.84474098,-29.11057235,17.36201809,-16.78372517
-2.90650230,-0.26650127,1.77368346

>  <Name>
P56076031

>  <RI>
0

>  <Rbt.Current_Directory>
/home/fstefaniak/projects/zuza/docking/adenine/4TZX

>  <Rbt.Executable>
rbdock ($Id: //depot/dev/client3/rdock/2013.1/src/exe/rbdock.cxx#4 $)

>  <Rbt.Library>
libRbt.so (2013.1, Build901 2013/11/27)

>  <Rbt.Parameter_File>
/home/fstefaniak/progs/rDock//data/scripts/dock_solv.prm

>  <Rbt.Receptor>
4tzx.prm

>  <SCORE>
-56.5136

>  <SCORE.INTER>
-36.0031

>  <SCORE.INTER.CONST>
1

>  <SCORE.INTER.POLAR>
-4.24585

>  <SCORE.INTER.ROT>
2

>  <SCORE.INTER.SOLV>
15.4422

>  <SCORE.INTER.VDW>
-19.93

>  <SCORE.INTER.norm>
-2.76947

>  <SCORE.INTRA>
0.616103

>  <SCORE.INTRA.DIHEDRAL>
1.63493

>  <SCORE.INTRA.DIHEDRAL.0>
3.46659

>  <SCORE.INTRA.POLAR>
0

>  <SCORE.INTRA.POLAR.0>
0

>  <SCORE.INTRA.REPUL>
0

>  <SCORE.INTRA.REPUL.0>
0

>  <SCORE.INTRA.SOLV>
0.0196157

>  <SCORE.INTRA.SOLV.lig_0>
-19.1899

>  <SCORE.INTRA.VDW>
-0.21117

>  <SCORE.INTRA.VDW.0>
-0.0507619

>  <SCORE.INTRA.norm>
0.0473926

>  <SCORE.RESTR>
0

>  <SCORE.RESTR.CAVITY>
0

>  <SCORE.RESTR.norm>
0

>  <SCORE.SYSTEM>
-21.1266

>  <SCORE.SYSTEM.CONST>
0

>  <SCORE.SYSTEM.DIHEDRAL>
4.41154

>  <SCORE.SYSTEM.POLAR>
-3.07376

>  <SCORE.SYSTEM.SOLV>
0.196147

>  <SCORE.SYSTEM.VDW>
-5.3744

>  <SCORE.SYSTEM.norm>
-1.62512

>  <SCORE.heavy>
13

>  <SCORE.norm>
-4.3472

$$$$
P56550642
 OpenBabel12072022113D
libRbt.so/2013.1/901 2013/11/27
 14 13  0  0  0  0  0  0  0  0999 V2000
  -30.9896   18.0189  -14.2135 C   0  0  0  0  0  0  0  0  0  0  0  0
  -31.4342   17.5200  -15.5818 C   0  0  0  0  0  0  0  0  0  0  0  0
  -30.2667   17.1179  -16.4497 C   0  0  0  0  0  0  0  0  0  0  0  0
  -29.9559   17.6680  -17.6420 C   0  0  0  0  0  0  0  0  0  0  0  0
  -30.6900   18.7764  -18.3311 C   0  0  0  0  0  0  0  0  0  0  0  0
  -29.4384   15.9916  -15.8968 C   0  0  0  0  0  0  0  0  0  0  0  0
  -29.6180   15.5843  -14.7521 O   0  0  0  0  0  0  0  0  0  0  0  0
  -28.4237   15.5657  -16.7288 N   0  0  0  0  0  0  0  0  0  0  0  0
  -27.5377   14.5473  -16.5278 C   0  0  0  0  0  0  0  0  0  0  0  0
  -26.6610   14.2971  -17.3482 O   0  0  0  0  0  0  0  0  0  0  0  0
  -27.6804   13.8211  -15.4003 N   0  0  0  0  0  0  0  0  0  0  0  0
  -28.2681   16.0485  -17.5996 H   0  0  0  0  0  0  0  0  0  0  0  0
  -27.0543   13.0373  -15.2344 H   0  0  0  0  0  0  0  0  0  0  0  0
  -28.5768   13.8316  -14.9362 H   0  0  0  0  0  0  0  0  0  0  0  0
  1  2  1  0  0  0  0
  2  3  1  0  0  0  0
  3  4  2  0  0  0  0
  3  6  1  0  0  0  0
  4  5  1  0  0  0  0
  6  7  2  0  0  0  0
  6  8  1  0  0  0  0
  8  9  1  0  0  0  0
  8 12  1  0  0  0  0
  9 10  2  0  0  0  0
  9 11  1  0  0  0  0
 11 13  1  0  0  0  0
 11 14  1  0  0  0  0
M  END
>  <CHROM.0>
-61.80162202,-59.85254438,-71.54795610,-43.55564999,-57.17032861,-53.64308437
-170.73468058,-55.50437597,-167.61804317

>  <CHROM.1>
-119.72669010,-9.31412580,178.14419155,-29.30484549,16.22657679,-16.23934112
2.81538473,0.76932289,-1.10464186

>  <Name>
P56550642

>  <RI>
0

>  <Rbt.Current_Directory>
/home/fstefaniak/projects/zuza/docking/adenine/4TZX

>  <Rbt.Executable>
rbdock ($Id: //depot/dev/client3/rdock/2013.1/src/exe/rbdock.cxx#4 $)

>  <Rbt.Library>
libRbt.so (2013.1, Build901 2013/11/27)

>  <Rbt.Parameter_File>
/home/fstefaniak/progs/rDock//data/scripts/dock_solv.prm

>  <Rbt.Receptor>
4tzx.prm

>  <SCORE>
-46.7747

>  <SCORE.INTER>
-26.5644

>  <SCORE.INTER.CONST>
1

>  <SCORE.INTER.POLAR>
-2.91207

>  <SCORE.INTER.ROT>
3

>  <SCORE.INTER.SOLV>
12.0442

>  <SCORE.INTER.VDW>
-17.6174

>  <SCORE.INTER.norm>
-2.41494

>  <SCORE.INTRA>
0.180809

>  <SCORE.INTRA.DIHEDRAL>
-4.06127

>  <SCORE.INTRA.DIHEDRAL.0>
6.03137

>  <SCORE.INTRA.POLAR>
0

>  <SCORE.INTRA.POLAR.0>
0

>  <SCORE.INTRA.REPUL>
0

>  <SCORE.INTRA.REPUL.0>
0

>  <SCORE.INTRA.SOLV>
0.173188

>  <SCORE.INTRA.SOLV.lig_0>
-16.2901

>  <SCORE.INTRA.VDW>
2.12485

>  <SCORE.INTRA.VDW.0>
-0.228239

>  <SCORE.INTRA.norm>
0.0164372

>  <SCORE.RESTR>
0

>  <SCORE.RESTR.CAVITY>
0

>  <SCORE.RESTR.norm>
0

>  <SCORE.SYSTEM>
-20.3911

>  <SCORE.SYSTEM.CONST>
0

>  <SCORE.SYSTEM.DIHEDRAL>
5.31373

>  <SCORE.SYSTEM.POLAR>
-3.05682

>  <SCORE.SYSTEM.SOLV>
0.173905

>  <SCORE.SYSTEM.VDW>
-5.23389

>  <SCORE.SYSTEM.norm>
-1.85374

>  <SCORE.heavy>
11

>  <SCORE.norm>
-4.25225

$$$$
P56550642
 OpenBabel12072022113D
libRbt.so/2013.1/901 2013/11/27
 14 13  0  0  0  0  0  0  0  0999 V2000
  -27.9039   13.3629  -17.4086 C   0  0  0  0  0  0  0  0  0  0  0  0
  -28.3456   14.0646  -16.1313 C   0  0  0  0  0  0  0  0  0  0  0  0
  -28.1602   15.5604  -16.2086 C   0  0  0  0  0  0  0  0  0  0  0  0
  -26.9820   16.1912  -16.3951 C   0  0  0  0  0  0  0  0  0  0  0  0
  -25.6422   15.5451  -16.5680 C   0  0  0  0  0  0  0  0  0  0  0  0
  -29.4241   16.3548  -16.0303 C   0  0  0  0  0  0  0  0  0  0  0  0
  -30.0701   16.2800  -14.9884 O   0  0  0  0  0  0  0  0  0  0  0  0
  -29.8262   17.0497  -17.1522 N   0  0  0  0  0  0  0  0  0  0  0  0
  -30.8982   17.8829  -17.2908 C   0  0  0  0  0  0  0  0  0  0  0  0
  -31.1537   18.4155  -18.3656 O   0  0  0  0  0  0  0  0  0  0  0  0
  -31.6495   18.1067  -16.1933 N   0  0  0  0  0  0  0  0  0  0  0  0
  -29.3019   16.9475  -18.0067 H   0  0  0  0  0  0  0  0  0  0  0  0
  -31.1959   18.4209  -15.3393 H   0  0  0  0  0  0  0  0  0  0  0  0
  -32.5437   17.6435  -16.1246 H   0  0  0  0  0  0  0  0  0  0  0  0
  1  2  1  0  0  0  0
  2  3  1  0  0  0  0
  3  4  2  0  0  0  0
  3  6  1  0  0  0  0
  4  5  1  0  0  0  0
  6  7  2  0  0  0  0
  6  8  1  0  0  0  0
  8  9  1  0  0  0  0
  8 12  1  0  0  0  0
  9 10  2  0  0  0  0
  9 11  1  0  0  0  0
 11 13  1  0  0  0  0
 11 14  1  0  0  0  0
M  END
>  <CHROM.0>
-57.33665112,-63.82990406,-65.98947396,-43.53364381,-55.88490045,59.15539111
-68.46716613,-62.95697776,-169.08247899

>  <CHROM.1>
-60.49603464,60.94856038,52.91030813,-29.13923859,16.27431019,-16.62150095
0.59192438,-0.36474521,2.51132603

>  <Name>
P56550642

>  <RI>
0

>  <Rbt.Current_Directory>
/home/fstefaniak/projects/zuza/docking/adenine/4TZX

>  <Rbt.Executable>
rbdock ($Id: //depot/dev/client3/rdock/2013.1/src/exe/rbdock.cxx#4 $)

>  <Rbt.Library>
libRbt.so (2013.1, Build901 2013/11/27)

>  <Rbt.Parameter_File>
/home/fstefaniak/progs/rDock//data/scripts/dock_solv.prm

>  <Rbt.Receptor>
4tzx.prm

>  <SCORE>
-46.6085

>  <SCORE.INTER>
-29.0669

>  <SCORE.INTER.CONST>
1

>  <SCORE.INTER.POLAR>
-3.22585

>  <SCORE.INTER.ROT>
3

>  <SCORE.INTER.SOLV>
11.8905

>  <SCORE.INTER.VDW>
-18.1886

>  <SCORE.INTER.norm>
-2.64244

>  <SCORE.INTRA>
2.55614

>  <SCORE.INTRA.DIHEDRAL>
5.00101

>  <SCORE.INTRA.DIHEDRAL.0>
6.03137

>  <SCORE.INTRA.POLAR>
0

>  <SCORE.INTRA.POLAR.0>
0

>  <SCORE.INTRA.REPUL>
0

>  <SCORE.INTRA.REPUL.0>
0

>  <SCORE.INTRA.SOLV>
-0.0476061

>  <SCORE.INTRA.SOLV.lig_0>
-16.2901

>  <SCORE.INTRA.VDW>
0.0794339

>  <SCORE.INTRA.VDW.0>
-0.228239

>  <SCORE.INTRA.norm>
0.232376

>  <SCORE.RESTR>
0

>  <SCORE.RESTR.CAVITY>
0

>  <SCORE.RESTR.norm>
0

>  <SCORE.SYSTEM>
-20.0978

>  <SCORE.SYSTEM.CONST>
0

>  <SCORE.SYSTEM.DIHEDRAL>
4.57848

>  <SCORE.SYSTEM.POLAR>
-3.06513

>  <SCORE.SYSTEM.SOLV>
0.0474485

>  <SCORE.SYSTEM.VDW>
-4.72338

>  <SCORE.SYSTEM.norm>
-1.82707

>  <SCORE.heavy>
11

>  <SCORE.norm>
-4.23714

$$$$
P56550642
 OpenBabel12072022113D
libRbt.so/2013.1/901 2013/11/27
 14 13  0  0  0  0  0  0  0  0999 V2000
  -27.9885   13.3555  -17.4715 C   0  0  0  0  0  0  0  0  0  0  0  0
  -28.4162   14.0018  -16.1607 C   0  0  0  0  0  0  0  0  0  0  0  0
  -28.2078   15.4965  -16.1667 C   0  0  0  0  0  0  0  0  0  0  0  0
  -27.0155   16.1168  -16.2870 C   0  0  0  0  0  0  0  0  0  0  0  0
  -25.6797   15.4585  -16.4441 C   0  0  0  0  0  0  0  0  0  0  0  0
  -29.4659   16.3016  -15.9953 C   0  0  0  0  0  0  0  0  0  0  0  0
  -30.1994   16.1203  -15.0270 O   0  0  0  0  0  0  0  0  0  0  0  0
  -29.7571   17.1398  -17.0517 N   0  0  0  0  0  0  0  0  0  0  0  0
  -30.7964   18.0160  -17.1732 C   0  0  0  0  0  0  0  0  0  0  0  0
  -30.9489   18.6830  -18.1910 O   0  0  0  0  0  0  0  0  0  0  0  0
  -31.6335   18.1275  -16.1215 N   0  0  0  0  0  0  0  0  0  0  0  0
  -29.1644   17.1263  -17.8665 H   0  0  0  0  0  0  0  0  0  0  0  0
  -31.2766   18.4925  -15.2421 H   0  0  0  0  0  0  0  0  0  0  0  0
  -32.4596   17.5477  -16.1057 H   0  0  0  0  0  0  0  0  0  0  0  0
  1  2  1  0  0  0  0
  2  3  1  0  0  0  0
  3  4  2  0  0  0  0
  3  6  1  0  0  0  0
  4  5  1  0  0  0  0
  6  7  2  0  0  0  0
  6  8  1  0  0  0  0
  8  9  1  0  0  0  0
  8 12  1  0  0  0  0
  9 10  2  0  0  0  0
  9 11  1  0  0  0  0
 11 13  1  0  0  0  0
 11 14  1  0  0  0  0
M  END
>  <CHROM.0>
-51.60754680,-68.41676960,-46.65006034,-43.10012727,-51.63538704,-176.53984068
-65.75816360,-173.40397405,-169.03556760

>  <CHROM.1>
-62.55751000,55.49107542,64.43346654,-29.14288995,16.27662410,-16.56326345
0.67932915,-0.29503851,2.68234168

>  <Name>
P56550642

>  <RI>
0

>  <Rbt.Current_Directory>
/home/fstefaniak/projects/zuza/docking/adenine/4TZX

>  <Rbt.Executable>
rbdock ($Id: //depot/dev/client3/rdock/2013.1/src/exe/rbdock.cxx#4 $)

>  <Rbt.Library>
libRbt.so (2013.1, Build901 2013/11/27)

>  <Rbt.Parameter_File>
/home/fstefaniak/progs/rDock//data/scripts/dock_solv.prm

>  <Rbt.Receptor>
4tzx.prm

>  <SCORE>
-46.1462

>  <SCORE.INTER>
-27.9192

>  <SCORE.INTER.CONST>
1

>  <SCORE.INTER.POLAR>
-2.9809

>  <SCORE.INTER.ROT>
3

>  <SCORE.INTER.SOLV>
12.0038

>  <SCORE.INTER.VDW>
-18.2777

>  <SCORE.INTER.norm>
-2.53811

>  <SCORE.INTRA>
2.03965

>  <SCORE.INTRA.DIHEDRAL>
4.09269

>  <SCORE.INTRA.DIHEDRAL.0>
6.03137

>  <SCORE.INTRA.POLAR>
0

>  <SCORE.INTRA.POLAR.0>
0

>  <SCORE.INTRA.REPUL>
0

>  <SCORE.INTRA.REPUL.0>
0

>  <SCORE.INTRA.SOLV>
-0.0381898

>  <SCORE.INTRA.SOLV.lig_0>
-16.2901

>  <SCORE.INTRA.VDW>
0.0124005

>  <SCORE.INTRA.VDW.0>
-0.228239

>  <SCORE.INTRA.norm>
0.185423

>  <SCORE.RESTR>
0

>  <SCORE.RESTR.CAVITY>
0

>  <SCORE.RESTR.norm>
0

>  <SCORE.SYSTEM>
-20.2667

>  <SCORE.SYSTEM.CONST>
0

>  <SCORE.SYSTEM.DIHEDRAL>
6.08526

>  <SCORE.SYSTEM.POLAR>
-3.24845

>  <SCORE.SYSTEM.SOLV>
-0.0231075

>  <SCORE.SYSTEM.VDW>
-4.70367

>  <SCORE.SYSTEM.norm>
-1.84242

>  <SCORE.heavy>
11

>  <SCORE.norm>
-4.19511

$$$$
P59171232
 OpenBabel12072022113D
libRbt.so/2013.1/901 2013/11/27
 16 16  0  0  0  0  0  0  0  0999 V2000
  -26.9089   17.2187  -16.5442 H   0  0  0  0  0  0  0  0  0  0  0  0
  -26.8815   16.2067  -16.7488 N   0  0  0  0  0  0  0  0  0  0  0  0
  -25.6562   15.8073  -16.6248 C   0  0  0  0  0  0  0  0  0  0  0  0
  -24.6402   16.6230  -16.2902 N   0  0  0  0  0  0  0  0  0  0  0  0
  -25.2801   14.5201  -16.8554 N   0  0  0  0  0  0  0  0  0  0  0  0
  -25.6368   13.4818  -15.9847 C   0  0  0  0  0  0  0  0  0  0  0  0
  -26.8650   12.8030  -16.0555 C   0  0  0  0  0  0  0  0  0  0  0  0
  -27.0954   11.7384  -15.1718 C   0  0  0  0  0  0  0  0  0  0  0  0
  -26.1158   11.3567  -14.2592 C   0  0  0  0  0  0  0  0  0  0  0  0
  -24.9112   12.0406  -14.2482 C   0  0  0  0  0  0  0  0  0  0  0  0
  -24.7207   13.0500  -15.0995 N   0  3  0  0  0  0  0  0  0  0  0  0
  -23.8244   13.5667  -15.1267 H   0  0  0  0  0  0  0  0  0  0  0  0
  -27.9200   13.1814  -17.0565 C   0  0  0  0  0  0  0  0  0  0  0  0
  -24.6655   17.0425  -15.3650 H   0  0  0  0  0  0  0  0  0  0  0  0
  -23.7027   16.2861  -16.4929 H   0  0  0  0  0  0  0  0  0  0  0  0
  -25.2795   14.2539  -17.8334 H   0  0  0  0  0  0  0  0  0  0  0  0
  1  2  1  0  0  0  0
  2  3  2  0  0  0  0
  3  4  1  0  0  0  0
  3  5  1  0  0  0  0
  4 14  1  0  0  0  0
  4 15  1  0  0  0  0
  5  6  1  0  0  0  0
  5 16  1  0  0  0  0
  6  7  2  0  0  0  0
  6 11  1  0  0  0  0
  7  8  1  0  0  0  0
  7 13  1  0  0  0  0
  8  9  2  0  0  0  0
  9 10  1  0  0  0  0
 10 11  2  0  0  0  0
 11 12  1  0  0  0  0
M  CHG  1  11   1
M  END
>  <CHROM.0>
-56.12510173,73.79123736,-66.82722174,-43.02026924,177.54210610,-60.66466263
-69.16696387,-61.71495755,-169.26973089

>  <CHROM.1>
64.74649290,-70.88987639,84.79081893,-25.94703553,13.79824255,-15.88699514
1.44375948,-0.46373024,-0.45072925

>  <Name>
P59171232

>  <RI>
0

>  <Rbt.Current_Directory>
/home/fstefaniak/projects/zuza/docking/adenine/4TZX

>  <Rbt.Executable>
rbdock ($Id: //depot/dev/client3/rdock/2013.1/src/exe/rbdock.cxx#4 $)

>  <Rbt.Library>
libRbt.so (2013.1, Build901 2013/11/27)

>  <Rbt.Parameter_File>
/home/fstefaniak/progs/rDock//data/scripts/dock_solv.prm

>  <Rbt.Receptor>
4tzx.prm

>  <SCORE>
-55.5445

>  <SCORE.INTER>
-34.367

>  <SCORE.INTER.CONST>
1

>  <SCORE.INTER.POLAR>
-5.5908

>  <SCORE.INTER.ROT>
3

>  <SCORE.INTER.SOLV>
14.9027

>  <SCORE.INTER.VDW>
-14.8429

>  <SCORE.INTER.norm>
-3.12427

>  <SCORE.INTRA>
-1.44134

>  <SCORE.INTRA.DIHEDRAL>
-0.0710836

>  <SCORE.INTRA.DIHEDRAL.0>
1.47642

>  <SCORE.INTRA.POLAR>
0.830087

>  <SCORE.INTRA.POLAR.0>
-0.830087

>  <SCORE.INTRA.REPUL>
0

>  <SCORE.INTRA.REPUL.0>
0

>  <SCORE.INTRA.SOLV>
-4.0703

>  <SCORE.INTRA.SOLV.lig_0>
-27.9088

>  <SCORE.INTRA.VDW>
-2.19295

>  <SCORE.INTRA.VDW.0>
0.900282

>  <SCORE.INTRA.norm>
-0.131031

>  <SCORE.RESTR>
0

>  <SCORE.RESTR.CAVITY>
0

>  <SCORE.RESTR.norm>
0

>  <SCORE.SYSTEM>
-19.7362

>  <SCORE.SYSTEM.CONST>
0

>  <SCORE.SYSTEM.DIHEDRAL>
5.50438

>  <SCORE.SYSTEM.POLAR>
-3.06914

>  <SCORE.SYSTEM.SOLV>
0.00400591

>  <SCORE.SYSTEM.VDW>
-4.76311

>  <SCORE.SYSTEM.norm>
-1.7942

>  <SCORE.heavy>
11

>  <SCORE.norm>
-5.0495

$$$$
P59171232
 OpenBabel12072022113D
libRbt.so/2013.1/901 2013/11/27
 16 16  0  0  0  0  0  0  0  0999 V2000
  -29.7035   17.7982  -13.0007 H   0  0  0  0  0  0  0  0  0  0  0  0
  -29.9177   17.9547  -13.9989 N   0  0  0  0  0  0  0  0  0  0  0  0
  -31.1979   18.1107  -14.1129 C   0  0  0  0  0  0  0  0  0  0  0  0
  -32.0472   18.0602  -13.0710 N   0  0  0  0  0  0  0  0  0  0  0  0
  -31.8059   18.3100  -15.3139 N   0  0  0  0  0  0  0  0  0  0  0  0
  -31.1058   18.1919  -16.5218 C   0  0  0  0  0  0  0  0  0  0  0  0
  -30.3200   17.0749  -16.8523 C   0  0  0  0  0  0  0  0  0  0  0  0
  -29.7094   17.0336  -18.1143 C   0  0  0  0  0  0  0  0  0  0  0  0
  -29.8976   18.0726  -19.0216 C   0  0  0  0  0  0  0  0  0  0  0  0
  -30.7038   19.1386  -18.6576 C   0  0  0  0  0  0  0  0  0  0  0  0
  -31.2707   19.1514  -17.4499 N   0  3  0  0  0  0  0  0  0  0  0  0
  -31.8927   19.9253  -17.1577 H   0  0  0  0  0  0  0  0  0  0  0  0
  -30.1334   15.9300  -15.8970 C   0  0  0  0  0  0  0  0  0  0  0  0
  -31.6920   17.6778  -12.1992 H   0  0  0  0  0  0  0  0  0  0  0  0
  -32.5886   18.9006  -12.8862 H   0  0  0  0  0  0  0  0  0  0  0  0
  -32.7617   17.9756  -15.3587 H   0  0  0  0  0  0  0  0  0  0  0  0
  1  2  1  0  0  0  0
  2  3  2  0  0  0  0
  3  4  1  0  0  0  0
  3  5  1  0  0  0  0
  4 14  1  0  0  0  0
  4 15  1  0  0  0  0
  5  6  1  0  0  0  0
  5 16  1  0  0  0  0
  6  7  2  0  0  0  0
  6 11  1  0  0  0  0
  7  8  1  0  0  0  0
  7 13  1  0  0  0  0
  8  9  2  0  0  0  0
  9 10  1  0  0  0  0
 10 11  2  0  0  0  0
 11 12  1  0  0  0  0
M  CHG  1  11   1
M  END
>  <CHROM.0>
-56.87902512,-60.83209359,-66.91950883,-42.79970741,-59.02158291,-58.69329604
-65.57359121,-173.77067671,-168.71895732

>  <CHROM.1>
-14.09526229,8.16933547,51.03298198,-30.77310044,17.91772959,-16.17146346
-1.95041623,0.94956874,-1.21750313

>  <Name>
P59171232

>  <RI>
0

>  <Rbt.Current_Directory>
/home/fstefaniak/projects/zuza/docking/adenine/4TZX

>  <Rbt.Executable>
rbdock ($Id: //depot/dev/client3/rdock/2013.1/src/exe/rbdock.cxx#4 $)

>  <Rbt.Library>
libRbt.so (2013.1, Build901 2013/11/27)

>  <Rbt.Parameter_File>
/home/fstefaniak/progs/rDock//data/scripts/dock_solv.prm

>  <Rbt.Receptor>
4tzx.prm

>  <SCORE>
-51.6345

>  <SCORE.INTER>
-30.457

>  <SCORE.INTER.CONST>
1

>  <SCORE.INTER.POLAR>
-4.55895

>  <SCORE.INTER.ROT>
3

>  <SCORE.INTER.SOLV>
23.9978

>  <SCORE.INTER.VDW>
-18.7074

>  <SCORE.INTER.norm>
-2.76882

>  <SCORE.INTRA>
-0.108798

>  <SCORE.INTRA.DIHEDRAL>
-0.00997046

>  <SCORE.INTRA.DIHEDRAL.0>
1.47642

>  <SCORE.INTRA.POLAR>
0.830087

>  <SCORE.INTRA.POLAR.0>
-0.830087

>  <SCORE.INTRA.REPUL>
0

>  <SCORE.INTRA.REPUL.0>
0

>  <SCORE.INTRA.SOLV>
-5.26347

>  <SCORE.INTRA.SOLV.lig_0>
-27.9088

>  <SCORE.INTRA.VDW>
-0.294373

>  <SCORE.INTRA.VDW.0>
0.900282

>  <SCORE.INTRA.norm>
-0.00989071

>  <SCORE.RESTR>
0

>  <SCORE.RESTR.CAVITY>
0

>  <SCORE.RESTR.norm>
0

>  <SCORE.SYSTEM>
-21.0687

>  <SCORE.SYSTEM.CONST>
0

>  <SCORE.SYSTEM.DIHEDRAL>
4.60155

>  <SCORE.SYSTEM.POLAR>
-3.07632

>  <SCORE.SYSTEM.SOLV>
0.0664746

>  <SCORE.SYSTEM.VDW>
-5.34738

>  <SCORE.SYSTEM.norm>
-1.91533

>  <SCORE.heavy>
11

>  <SCORE.norm>
-4.69405

$$$$
P59171232
 OpenBabel12072022113D
libRbt.so/2013.1/901 2013/11/27
 16 16  0  0  0  0  0  0  0  0999 V2000
  -28.1054   13.8049  -15.3165 H   0  0  0  0  0  0  0  0  0  0  0  0
  -27.7970   14.7440  -15.6159 N   0  0  0  0  0  0  0  0  0  0  0  0
  -28.8368   15.5147  -15.6470 C   0  0  0  0  0  0  0  0  0  0  0  0
  -30.0780   15.0992  -15.3364 N   0  0  0  0  0  0  0  0  0  0  0  0
  -28.7692   16.8184  -16.0311 N   0  0  0  0  0  0  0  0  0  0  0  0
  -29.8020   17.4263  -16.7570 C   0  0  0  0  0  0  0  0  0  0  0  0
  -30.9451   17.9802  -16.1562 C   0  0  0  0  0  0  0  0  0  0  0  0
  -31.8904   18.6179  -16.9729 C   0  0  0  0  0  0  0  0  0  0  0  0
  -31.6844   18.7120  -18.3465 C   0  0  0  0  0  0  0  0  0  0  0  0
  -30.5278   18.1736  -18.8863 C   0  0  0  0  0  0  0  0  0  0  0  0
  -29.6470   17.5717  -18.0852 N   0  3  0  0  0  0  0  0  0  0  0  0
  -28.7657   17.1770  -18.4576 H   0  0  0  0  0  0  0  0  0  0  0  0
  -31.1666   17.9158  -14.6712 C   0  0  0  0  0  0  0  0  0  0  0  0
  -30.8244   15.3396  -15.9826 H   0  0  0  0  0  0  0  0  0  0  0  0
  -30.1717   14.1304  -15.0430 H   0  0  0  0  0  0  0  0  0  0  0  0
  -28.3267   17.4306  -15.3553 H   0  0  0  0  0  0  0  0  0  0  0  0
  1  2  1  0  0  0  0
  2  3  2  0  0  0  0
  3  4  1  0  0  0  0
  3  5  1  0  0  0  0
  4 14  1  0  0  0  0
  4 15  1  0  0  0  0
  5  6  1  0  0  0  0
  5 16  1  0  0  0  0
  6  7  2  0  0  0  0
  6 11  1  0  0  0  0
  7  8  1  0  0  0  0
  7 13  1  0  0  0  0
  8  9  2  0  0  0  0
  9 10  1  0  0  0  0
 10 11  2  0  0  0  0
 11 12  1  0  0  0  0
M  CHG  1  11   1
M  END
>  <CHROM.0>
-61.28749184,-60.55275394,-54.80700832,-43.10530021,-58.77274863,-59.98024643
-66.61544626,-63.02483614,-168.78405097

>  <CHROM.1>
-131.72637944,143.99014630,84.19507108,-30.06724913,17.07618308,-16.54676163
-0.79966215,0.69175172,-1.16946615

>  <Name>
P59171232

>  <RI>
0

>  <Rbt.Current_Directory>
/home/fstefaniak/projects/zuza/docking/adenine/4TZX

>  <Rbt.Executable>
rbdock ($Id: //depot/dev/client3/rdock/2013.1/src/exe/rbdock.cxx#4 $)

>  <Rbt.Library>
libRbt.so (2013.1, Build901 2013/11/27)

>  <Rbt.Parameter_File>
/home/fstefaniak/progs/rDock//data/scripts/dock_solv.prm

>  <Rbt.Receptor>
4tzx.prm

>  <SCORE>
-50.8137

>  <SCORE.INTER>
-28.6071

>  <SCORE.INTER.CONST>
1

>  <SCORE.INTER.POLAR>
-3.63475

>  <SCORE.INTER.ROT>
3

>  <SCORE.INTER.SOLV>
23.1922

>  <SCORE.INTER.VDW>
-20.2863

>  <SCORE.INTER.norm>
-2.60064

>  <SCORE.INTRA>
-1.27671

>  <SCORE.INTRA.DIHEDRAL>
-0.081226

>  <SCORE.INTRA.DIHEDRAL.0>
1.47642

>  <SCORE.INTRA.POLAR>
0.830087

>  <SCORE.INTRA.POLAR.0>
-0.830087

>  <SCORE.INTRA.REPUL>
0

>  <SCORE.INTRA.REPUL.0>
0

>  <SCORE.INTRA.SOLV>
-4.70707

>  <SCORE.INTRA.SOLV.lig_0>
-27.9088

>  <SCORE.INTRA.VDW>
-1.70486

>  <SCORE.INTRA.VDW.0>
0.900282

>  <SCORE.INTRA.norm>
-0.116065

>  <SCORE.RESTR>
0

>  <SCORE.RESTR.CAVITY>
0

>  <SCORE.RESTR.norm>
0

>  <SCORE.SYSTEM>
-20.9299

>  <SCORE.SYSTEM.CONST>
0

>  <SCORE.SYSTEM.DIHEDRAL>
4.33767

>  <SCORE.SYSTEM.POLAR>
-3.076

>  <SCORE.SYSTEM.SOLV>
0.19656

>  <SCORE.SYSTEM.VDW>
-5.21137

>  <SCORE.SYSTEM.norm>
-1.90272

>  <SCORE.heavy>
11

>  <SCORE.norm>
-4.61943

$$$$
P59176407
 OpenBabel12072022113D
libRbt.so/2013.1/901 2013/11/27
 12 13  0  0  0  0  0  0  0  0999 V2000
  -28.3301   16.2316  -16.4045 C   0  0  0  0  0  0  0  0  0  0  0  0
  -28.7885   14.7812  -16.1431 C   0  0  0  0  0  0  0  0  0  0  0  0
  -27.6985   13.9333  -16.7886 C   0  0  2  0  0  0  0  0  0  0  0  0
  -27.2561   12.6370  -16.1155 C   0  0  0  0  0  0  0  0  0  0  0  0
  -25.7251   12.6854  -16.2000 C   0  0  1  0  0  0  0  0  0  0  0  0
  -25.4883   14.1553  -16.2704 N   0  3  0  0  0  0  0  0  0  0  0  0
  -24.6372   14.4902  -15.7873 H   0  0  0  0  0  0  0  0  0  0  0  0
  -26.5482   14.8138  -16.4905 C   0  0  0  0  0  0  0  0  0  0  0  0
  -26.8031   16.2341  -16.2153 C   0  0  0  0  0  0  0  0  0  0  0  0
  -24.9278   12.2502  -14.9630 C   0  0  0  0  0  0  0  0  0  0  0  0
  -25.2061   12.9514  -13.9390 O   0  0  0  0  0  0  0  0  0  0  0  0
  -24.1848   11.2535  -15.1087 O   0  5  0  0  0  0  0  0  0  0  0  0
  1  2  1  0  0  0  0
  1  9  1  0  0  0  0
  3  2  1  1  0  0  0
  3  4  1  0  0  0  0
  3  8  1  0  0  0  0
  4  5  1  0  0  0  0
  5  6  1  0  0  0  0
  5 10  1  1  0  0  0
  6  7  1  0  0  0  0
  6  8  2  0  0  0  0
  8  9  1  0  0  0  0
 10 11  2  0  0  0  0
 10 12  1  0  0  0  0
M  CHG  2   6   1  12  -1
M  END
>  <CHROM.0>
-59.93397971,-61.98742906,-66.43779940,-43.68855794,-176.92633779,-62.94805362
-67.18694628,-61.71020196,-168.59082012

>  <CHROM.1>
-59.02467534,-26.40890590,13.78589542,-15.83657410,-2.34022855,0.40080859
3.11607524

>  <Name>
P59176407

>  <RI>
0

>  <Rbt.Current_Directory>
/home/fstefaniak/projects/zuza/docking/adenine/4TZX

>  <Rbt.Executable>
rbdock ($Id: //depot/dev/client3/rdock/2013.1/src/exe/rbdock.cxx#4 $)

>  <Rbt.Library>
libRbt.so (2013.1, Build901 2013/11/27)

>  <Rbt.Parameter_File>
/home/fstefaniak/progs/rDock//data/scripts/dock_solv.prm

>  <Rbt.Receptor>
4tzx.prm

>  <SCORE>
-41.7875

>  <SCORE.INTER>
-19.3939

>  <SCORE.INTER.CONST>
1

>  <SCORE.INTER.POLAR>
-2.52042

>  <SCORE.INTER.ROT>
1

>  <SCORE.INTER.SOLV>
12.2611

>  <SCORE.INTER.VDW>
-12.8816

>  <SCORE.INTER.norm>
-1.76308

>  <SCORE.INTRA>
-1.0387

>  <SCORE.INTRA.DIHEDRAL>
0.0225341

>  <SCORE.INTRA.DIHEDRAL.0>
1.04839

>  <SCORE.INTRA.POLAR>
0

>  <SCORE.INTRA.POLAR.0>
0

>  <SCORE.INTRA.REPUL>
0

>  <SCORE.INTRA.REPUL.0>
0

>  <SCORE.INTRA.SOLV>
-0.377658

>  <SCORE.INTRA.SOLV.lig_0>
-44.9961

>  <SCORE.INTRA.VDW>
-0.861137

>  <SCORE.INTRA.VDW.0>
0.527518

>  <SCORE.INTRA.norm>
-0.0944271

>  <SCORE.RESTR>
0

>  <SCORE.RESTR.CAVITY>
0

>  <SCORE.RESTR.norm>
0

>  <SCORE.SYSTEM>
-21.3548

>  <SCORE.SYSTEM.CONST>
0

>  <SCORE.SYSTEM.DIHEDRAL>
4.4323

>  <SCORE.SYSTEM.POLAR>
-3.0363

>  <SCORE.SYSTEM.SOLV>
-0.00922411

>  <SCORE.SYSTEM.VDW>
-5.58991

>  <SCORE.SYSTEM.norm>
-1.94135

>  <SCORE.heavy>
11

>  <SCORE.norm>
-3.79886

$$$$
P59176407
 OpenBabel12072022113D
libRbt.so/2013.1/901 2013/11/27
 12 13  0  0  0  0  0  0  0  0999 V2000
  -28.4080   16.2751  -16.3743 C   0  0  0  0  0  0  0  0  0  0  0  0
  -28.9034   14.8580  -16.0161 C   0  0  0  0  0  0  0  0  0  0  0  0
  -27.8945   13.9379  -16.6940 C   0  0  2  0  0  0  0  0  0  0  0  0
  -27.4573   12.6545  -15.9935 C   0  0  0  0  0  0  0  0  0  0  0  0
  -25.9351   12.6349  -16.1832 C   0  0  1  0  0  0  0  0  0  0  0  0
  -25.6467   14.0892  -16.3368 N   0  3  0  0  0  0  0  0  0  0  0  0
  -24.7518   14.4087  -15.9281 H   0  0  0  0  0  0  0  0  0  0  0  0
  -26.6929   14.7815  -16.5150 C   0  0  0  0  0  0  0  0  0  0  0  0
  -26.8727   16.2218  -16.2888 C   0  0  0  0  0  0  0  0  0  0  0  0
  -25.0716   12.2205  -14.9840 C   0  0  0  0  0  0  0  0  0  0  0  0
  -25.1727   13.0355  -14.0127 O   0  0  0  0  0  0  0  0  0  0  0  0
  -24.4563   11.1363  -15.0964 O   0  5  0  0  0  0  0  0  0  0  0  0
  1  2  1  0  0  0  0
  1  9  1  0  0  0  0
  3  2  1  1  0  0  0
  3  4  1  0  0  0  0
  3  8  1  0  0  0  0
  4  5  1  0  0  0  0
  5  6  1  0  0  0  0
  5 10  1  1  0  0  0
  6  7  1  0  0  0  0
  6  8  2  0  0  0  0
  8  9  1  0  0  0  0
 10 11  2  0  0  0  0
 10 12  1  0  0  0  0
M  CHG  2   6   1  12  -1
M  END
>  <CHROM.0>
-61.48874406,-63.96979465,-67.97714302,-42.38421850,-175.01063646,-62.19780548
-64.84253283,-59.32880085,-168.70997996

>  <CHROM.1>
-64.10836611,-26.54859316,13.77858692,-15.82522918,-2.30196026,0.34793513
3.07088805

>  <Name>
P59176407

>  <RI>
0

>  <Rbt.Current_Directory>
/home/fstefaniak/projects/zuza/docking/adenine/4TZX

>  <Rbt.Executable>
rbdock ($Id: //depot/dev/client3/rdock/2013.1/src/exe/rbdock.cxx#4 $)

>  <Rbt.Library>
libRbt.so (2013.1, Build901 2013/11/27)

>  <Rbt.Parameter_File>
/home/fstefaniak/progs/rDock//data/scripts/dock_solv.prm

>  <Rbt.Receptor>
4tzx.prm

>  <SCORE>
-41.7593

>  <SCORE.INTER>
-19.4927

>  <SCORE.INTER.CONST>
1

>  <SCORE.INTER.POLAR>
-2.52042

>  <SCORE.INTER.ROT>
1

>  <SCORE.INTER.SOLV>
11.5602

>  <SCORE.INTER.VDW>
-12.7138

>  <SCORE.INTER.norm>
-1.77207

>  <SCORE.INTRA>
-0.973935

>  <SCORE.INTRA.DIHEDRAL>
0.0092064

>  <SCORE.INTRA.DIHEDRAL.0>
1.04839

>  <SCORE.INTRA.POLAR>
0

>  <SCORE.INTRA.POLAR.0>
0

>  <SCORE.INTRA.REPUL>
0

>  <SCORE.INTRA.REPUL.0>
0

>  <SCORE.INTRA.SOLV>
-0.328048

>  <SCORE.INTRA.SOLV.lig_0>
-44.9961

>  <SCORE.INTRA.VDW>
-0.814514

>  <SCORE.INTRA.VDW.0>
0.527518

>  <SCORE.INTRA.norm>
-0.0885396

>  <SCORE.RESTR>
0

>  <SCORE.RESTR.CAVITY>
0

>  <SCORE.RESTR.norm>
0

>  <SCORE.SYSTEM>
-21.2926

>  <SCORE.SYSTEM.CONST>
0

>  <SCORE.SYSTEM.DIHEDRAL>
4.68668

>  <SCORE.SYSTEM.POLAR>
-3.04807

>  <SCORE.SYSTEM.SOLV>
-0.0025117

>  <SCORE.SYSTEM.VDW>
-5.59624

>  <SCORE.SYSTEM.norm>
-1.93569

>  <SCORE.heavy>
11

>  <SCORE.norm>
-3.7963

$$$$
P59176407
 OpenBabel12072022113D
libRbt.so/2013.1/901 2013/11/27
 12 13  0  0  0  0  0  0  0  0999 V2000
  -28.4055   16.2101  -16.3951 C   0  0  0  0  0  0  0  0  0  0  0  0
  -28.8780   14.7989  -15.9863 C   0  0  0  0  0  0  0  0  0  0  0  0
  -27.8735   13.8700  -16.6586 C   0  0  2  0  0  0  0  0  0  0  0  0
  -27.4082   12.6119  -15.9309 C   0  0  0  0  0  0  0  0  0  0  0  0
  -25.8901   12.6023  -16.1517 C   0  0  1  0  0  0  0  0  0  0  0  0
  -25.6206   14.0544  -16.3528 N   0  3  0  0  0  0  0  0  0  0  0  0
  -24.7210   14.3946  -15.9722 H   0  0  0  0  0  0  0  0  0  0  0  0
  -26.6776   14.7306  -16.5289 C   0  0  0  0  0  0  0  0  0  0  0  0
  -26.8683   16.1749  -16.3402 C   0  0  0  0  0  0  0  0  0  0  0  0
  -24.9976   12.2315  -14.9595 C   0  0  0  0  0  0  0  0  0  0  0  0
  -25.2141   12.9703  -13.9471 O   0  0  0  0  0  0  0  0  0  0  0  0
  -24.2488   11.2411  -15.1186 O   0  5  0  0  0  0  0  0  0  0  0  0
  1  2  1  0  0  0  0
  1  9  1  0  0  0  0
  3  2  1  1  0  0  0
  3  4  1  0  0  0  0
  3  8  1  0  0  0  0
  4  5  1  0  0  0  0
  5  6  1  0  0  0  0
  5 10  1  1  0  0  0
  6  7  1  0  0  0  0
  6  8  2  0  0  0  0
  8  9  1  0  0  0  0
 10 11  2  0  0  0  0
 10 12  1  0  0  0  0
M  CHG  2   6   1  12  -1
M  END
>  <CHROM.0>
-62.24990513,-59.31035834,-66.19800502,-42.59299759,-173.77233183,-63.57088505
-66.14800509,-59.61014175,-169.27244332

>  <CHROM.1>
-55.59460903,-26.50857609,13.74821138,-15.81408623,-2.31224878,0.29346342
3.01810334

>  <Name>
P59176407

>  <RI>
0

>  <Rbt.Current_Directory>
/home/fstefaniak/projects/zuza/docking/adenine/4TZX

>  <Rbt.Executable>
rbdock ($Id: //depot/dev/client3/rdock/2013.1/src/exe/rbdock.cxx#4 $)

>  <Rbt.Library>
libRbt.so (2013.1, Build901 2013/11/27)

>  <Rbt.Parameter_File>
/home/fstefaniak/progs/rDock//data/scripts/dock_solv.prm

>  <Rbt.Receptor>
4tzx.prm

>  <SCORE>
-41.7308

>  <SCORE.INTER>
-19.3932

>  <SCORE.INTER.CONST>
1

>  <SCORE.INTER.POLAR>
-2.52042

>  <SCORE.INTER.ROT>
1

>  <SCORE.INTER.SOLV>
11.6342

>  <SCORE.INTER.VDW>
-12.6721

>  <SCORE.INTER.norm>
-1.76302

>  <SCORE.INTRA>
-1.06669

>  <SCORE.INTRA.DIHEDRAL>
0.0303479

>  <SCORE.INTRA.DIHEDRAL.0>
1.04839

>  <SCORE.INTRA.POLAR>
0

>  <SCORE.INTRA.POLAR.0>
0

>  <SCORE.INTRA.REPUL>
0

>  <SCORE.INTRA.REPUL.0>
0

>  <SCORE.INTRA.SOLV>
-0.411251

>  <SCORE.INTRA.SOLV.lig_0>
-44.9961

>  <SCORE.INTRA.VDW>
-0.87624

>  <SCORE.INTRA.VDW.0>
0.527518

>  <SCORE.INTRA.norm>
-0.096972

>  <SCORE.RESTR>
0

>  <SCORE.RESTR.CAVITY>
0

>  <SCORE.RESTR.norm>
0

>  <SCORE.SYSTEM>
-21.2709

>  <SCORE.SYSTEM.CONST>
0

>  <SCORE.SYSTEM.DIHEDRAL>
4.59151

>  <SCORE.SYSTEM.POLAR>
-3.0375

>  <SCORE.SYSTEM.SOLV>
-0.00495373

>  <SCORE.SYSTEM.VDW>
-5.58444

>  <SCORE.SYSTEM.norm>
-1.93372

>  <SCORE.heavy>
11

>  <SCORE.norm>
-3.79371

$$$$
P59177695
 OpenBabel12072022113D
libRbt.so/2013.1/901 2013/11/27
 13 13  0  0  0  0  0  0  0  0999 V2000
  -26.6205   15.5857  -16.1580 C   0  0  0  0  0  0  0  0  0  0  0  0
  -28.0200   16.1290  -16.3754 C   0  0  2  0  0  0  0  0  0  0  0  0
  -28.4273   17.1928  -15.3736 C   0  0  0  0  0  0  0  0  0  0  0  0
  -29.9496   17.1835  -15.4541 C   0  0  2  0  0  0  0  0  0  0  0  0
  -30.3335   15.7402  -15.7813 C   0  0  0  0  0  0  0  0  0  0  0  0
  -29.0248   15.0416  -16.1141 N   0  3  0  0  0  0  0  0  0  0  0  0
  -29.1517   14.4635  -16.9533 H   0  0  0  0  0  0  0  0  0  0  0  0
  -28.7464   14.4388  -15.3340 H   0  0  0  0  0  0  0  0  0  0  0  0
  -30.5468   17.9135  -16.6870 C   0  0  0  0  0  0  0  0  0  0  0  0
  -31.5350   18.6593  -16.4560 O   0  0  0  0  0  0  0  0  0  0  0  0
  -30.0625   17.5339  -17.7918 O   0  5  0  0  0  0  0  0  0  0  0  0
  -30.5295   17.6239  -14.2148 O   0  0  0  0  0  0  0  0  0  0  0  0
  -30.1881   18.4955  -13.9666 H   0  0  0  0  0  0  0  0  0  0  0  0
  2  1  1  1  0  0  0
  2  3  1  0  0  0  0
  2  6  1  0  0  0  0
  3  4  1  0  0  0  0
  4  5  1  0  0  0  0
  4 12  1  1  0  0  0
  4  9  1  0  0  0  0
  5  6  1  0  0  0  0
  6  7  1  0  0  0  0
  6  8  1  0  0  0  0
  9 10  2  0  0  0  0
  9 11  1  0  0  0  0
 12 13  1  0  0  0  0
M  CHG  2   6   1  11  -1
M  END
>  <CHROM.0>
-62.19849016,-174.49673225,-65.56797200,-43.15150908,-61.40137790,-55.68657408
-68.45764061,60.03434207,-169.06501822

>  <CHROM.1>
55.33331225,-135.93323101,-29.52077122,16.85960220,-16.02990655,-0.06559666
0.64057809,-1.46656913

>  <Name>
P59177695

>  <RI>
0

>  <Rbt.Current_Directory>
/home/fstefaniak/projects/zuza/docking/adenine/4TZX

>  <Rbt.Executable>
rbdock ($Id: //depot/dev/client3/rdock/2013.1/src/exe/rbdock.cxx#4 $)

>  <Rbt.Library>
libRbt.so (2013.1, Build901 2013/11/27)

>  <Rbt.Parameter_File>
/home/fstefaniak/progs/rDock//data/scripts/dock_solv.prm

>  <Rbt.Receptor>
4tzx.prm

>  <SCORE>
-44.0462

>  <SCORE.INTER>
-22.8715

>  <SCORE.INTER.CONST>
1

>  <SCORE.INTER.POLAR>
-4.26873

>  <SCORE.INTER.ROT>
1

>  <SCORE.INTER.SOLV>
22.017

>  <SCORE.INTER.VDW>
-12.6242

>  <SCORE.INTER.norm>
-2.28715

>  <SCORE.INTRA>
-1.12389

>  <SCORE.INTRA.DIHEDRAL>
-2.00788

>  <SCORE.INTRA.DIHEDRAL.0>
3.19685

>  <SCORE.INTRA.POLAR>
0

>  <SCORE.INTRA.POLAR.0>
0

>  <SCORE.INTRA.REPUL>
0

>  <SCORE.INTRA.REPUL.0>
0

>  <SCORE.INTRA.SOLV>
0.837299

>  <SCORE.INTRA.SOLV.lig_0>
-47.9083

>  <SCORE.INTRA.VDW>
-0.538602

>  <SCORE.INTRA.VDW.0>
1.3151

>  <SCORE.INTRA.norm>
-0.112389

>  <SCORE.RESTR>
0

>  <SCORE.RESTR.CAVITY>
0

>  <SCORE.RESTR.norm>
0

>  <SCORE.SYSTEM>
-20.0507

>  <SCORE.SYSTEM.CONST>
0

>  <SCORE.SYSTEM.DIHEDRAL>
4.64971

>  <SCORE.SYSTEM.POLAR>
-3.05133

>  <SCORE.SYSTEM.SOLV>
-0.0178961

>  <SCORE.SYSTEM.VDW>
-4.74

>  <SCORE.SYSTEM.norm>
-2.00507

>  <SCORE.heavy>
10

>  <SCORE.norm>
-4.40462

$$$$
P59177695
 OpenBabel12072022113D
libRbt.so/2013.1/901 2013/11/27
 13 13  0  0  0  0  0  0  0  0999 V2000
  -26.6084   15.5427  -16.1811 C   0  0  0  0  0  0  0  0  0  0  0  0
  -28.0029   16.1046  -16.3828 C   0  0  2  0  0  0  0  0  0  0  0  0
  -28.3926   17.1584  -15.3635 C   0  0  0  0  0  0  0  0  0  0  0  0
  -29.9154   17.1673  -15.4354 C   0  0  2  0  0  0  0  0  0  0  0  0
  -30.3173   15.7332  -15.7810 C   0  0  0  0  0  0  0  0  0  0  0  0
  -29.0184   15.0248  -16.1312 N   0  3  0  0  0  0  0  0  0  0  0  0
  -29.1564   14.4602  -16.9778 H   0  0  0  0  0  0  0  0  0  0  0  0
  -28.7424   14.4078  -15.3613 H   0  0  0  0  0  0  0  0  0  0  0  0
  -30.5112   17.9214  -16.6544 C   0  0  0  0  0  0  0  0  0  0  0  0
  -31.4996   18.6626  -16.4098 O   0  0  0  0  0  0  0  0  0  0  0  0
  -30.0256   17.5636  -17.7659 O   0  5  0  0  0  0  0  0  0  0  0  0
  -30.4834   17.5964  -14.1867 O   0  0  0  0  0  0  0  0  0  0  0  0
  -30.1619   18.4782  -13.9484 H   0  0  0  0  0  0  0  0  0  0  0  0
  2  1  1  1  0  0  0
  2  3  1  0  0  0  0
  2  6  1  0  0  0  0
  3  4  1  0  0  0  0
  4  5  1  0  0  0  0
  4 12  1  1  0  0  0
  4  9  1  0  0  0  0
  5  6  1  0  0  0  0
  6  7  1  0  0  0  0
  6  8  1  0  0  0  0
  9 10  2  0  0  0  0
  9 11  1  0  0  0  0
 12 13  1  0  0  0  0
M  CHG  2   6   1  11  -1
M  END
>  <CHROM.0>
-64.14873076,-173.74816973,-58.85223512,-42.52982082,-55.77011390,-174.79311976
-67.86849684,59.05787581,-169.40855910

>  <CHROM.1>
57.94352269,-136.74167997,-29.49343946,16.84686919,-16.01856721,-0.06518608
0.65055625,-1.44692541

>  <Name>
P59177695

>  <RI>
0

>  <Rbt.Current_Directory>
/home/fstefaniak/projects/zuza/docking/adenine/4TZX

>  <Rbt.Executable>
rbdock ($Id: //depot/dev/client3/rdock/2013.1/src/exe/rbdock.cxx#4 $)

>  <Rbt.Library>
libRbt.so (2013.1, Build901 2013/11/27)

>  <Rbt.Parameter_File>
/home/fstefaniak/progs/rDock//data/scripts/dock_solv.prm

>  <Rbt.Receptor>
4tzx.prm

>  <SCORE>
-43.648

>  <SCORE.INTER>
-22.7091

>  <SCORE.INTER.CONST>
1

>  <SCORE.INTER.POLAR>
-4.27411

>  <SCORE.INTER.ROT>
1

>  <SCORE.INTER.SOLV>
22.0178

>  <SCORE.INTER.VDW>
-12.4983

>  <SCORE.INTER.norm>
-2.27091

>  <SCORE.INTRA>
-1.27452

>  <SCORE.INTRA.DIHEDRAL>
-2.1971

>  <SCORE.INTRA.DIHEDRAL.0>
3.19685

>  <SCORE.INTRA.POLAR>
0

>  <SCORE.INTRA.POLAR.0>
0

>  <SCORE.INTRA.REPUL>
0

>  <SCORE.INTRA.REPUL.0>
0

>  <SCORE.INTRA.SOLV>
0.840806

>  <SCORE.INTRA.SOLV.lig_0>
-47.9083

>  <SCORE.INTRA.VDW>
-0.596371

>  <SCORE.INTRA.VDW.0>
1.3151

>  <SCORE.INTRA.norm>
-0.127452

>  <SCORE.RESTR>
0

>  <SCORE.RESTR.CAVITY>
0

>  <SCORE.RESTR.norm>
0

>  <SCORE.SYSTEM>
-19.6644

>  <SCORE.SYSTEM.CONST>
0

>  <SCORE.SYSTEM.DIHEDRAL>
4.74273

>  <SCORE.SYSTEM.POLAR>
-3.03779

>  <SCORE.SYSTEM.SOLV>
-0.13055

>  <SCORE.SYSTEM.VDW>
-4.52101

>  <SCORE.SYSTEM.norm>
-1.96644

>  <SCORE.heavy>
10

>  <SCORE.norm>
-4.3648

$$$$
P59177695
 OpenBabel12072022113D
libRbt.so/2013.1/901 2013/11/27
 13 13  0  0  0  0  0  0  0  0999 V2000
  -26.5996   15.6619  -16.1593 C   0  0  0  0  0  0  0  0  0  0  0  0
  -28.0215   16.1435  -16.3767 C   0  0  2  0  0  0  0  0  0  0  0  0
  -28.4541   17.2325  -15.4132 C   0  0  0  0  0  0  0  0  0  0  0  0
  -29.9759   17.1636  -15.4691 C   0  0  2  0  0  0  0  0  0  0  0  0
  -30.3100   15.6947  -15.7305 C   0  0  0  0  0  0  0  0  0  0  0  0
  -28.9808   15.0316  -16.0549 N   0  3  0  0  0  0  0  0  0  0  0  0
  -29.0979   14.4147  -16.8675 H   0  0  0  0  0  0  0  0  0  0  0  0
  -28.6689   14.4726  -15.2551 H   0  0  0  0  0  0  0  0  0  0  0  0
  -30.6177   17.8189  -16.7214 C   0  0  0  0  0  0  0  0  0  0  0  0
  -30.0956   17.5149  -17.8265 O   0  0  0  0  0  0  0  0  0  0  0  0
  -31.4801   18.7037  -16.4520 O   0  5  0  0  0  0  0  0  0  0  0  0
  -30.5542   17.6337  -14.2400 O   0  0  0  0  0  0  0  0  0  0  0  0
  -30.2432   18.5273  -14.0340 H   0  0  0  0  0  0  0  0  0  0  0  0
  2  1  1  1  0  0  0
  2  3  1  0  0  0  0
  2  6  1  0  0  0  0
  3  4  1  0  0  0  0
  4  5  1  0  0  0  0
  4 12  1  1  0  0  0
  4  9  1  0  0  0  0
  5  6  1  0  0  0  0
  6  7  1  0  0  0  0
  6  8  1  0  0  0  0
  9 10  2  0  0  0  0
  9 11  1  0  0  0  0
 12 13  1  0  0  0  0
M  CHG  2   6   1  11  -1
M  END
>  <CHROM.0>
-58.64022734,-175.21966851,-65.67317249,-43.57995693,57.30123316,-59.76809094
-67.75257381,-55.91026051,-168.85004642

>  <CHROM.1>
55.41467998,47.17253159,-29.52264856,16.86176721,-16.03295801,-0.10134251
0.63212457,-1.41739564

>  <Name>
P59177695

>  <RI>
0

>  <Rbt.Current_Directory>
/home/fstefaniak/projects/zuza/docking/adenine/4TZX

>  <Rbt.Executable>
rbdock ($Id: //depot/dev/client3/rdock/2013.1/src/exe/rbdock.cxx#4 $)

>  <Rbt.Library>
libRbt.so (2013.1, Build901 2013/11/27)

>  <Rbt.Parameter_File>
/home/fstefaniak/progs/rDock//data/scripts/dock_solv.prm

>  <Rbt.Receptor>
4tzx.prm

>  <SCORE>
-43.535

>  <SCORE.INTER>
-21.8685

>  <SCORE.INTER.CONST>
1

>  <SCORE.INTER.POLAR>
-3.95642

>  <SCORE.INTER.ROT>
1

>  <SCORE.INTER.SOLV>
21.9555

>  <SCORE.INTER.VDW>
-12.9761

>  <SCORE.INTER.norm>
-2.18685

>  <SCORE.INTRA>
-1.50444

>  <SCORE.INTRA.DIHEDRAL>
-1.9536

>  <SCORE.INTRA.DIHEDRAL.0>
3.19685

>  <SCORE.INTRA.POLAR>
0

>  <SCORE.INTRA.POLAR.0>
0

>  <SCORE.INTRA.REPUL>
0

>  <SCORE.INTRA.REPUL.0>
0

>  <SCORE.INTRA.SOLV>
0.737473

>  <SCORE.INTRA.SOLV.lig_0>
-47.9083

>  <SCORE.INTRA.VDW>
-0.89638

>  <SCORE.INTRA.VDW.0>
1.3151

>  <SCORE.INTRA.norm>
-0.150444

>  <SCORE.RESTR>
0

>  <SCORE.RESTR.CAVITY>
0

>  <SCORE.RESTR.norm>
0

>  <SCORE.SYSTEM>
-20.1621

>  <SCORE.SYSTEM.CONST>
0

>  <SCORE.SYSTEM.DIHEDRAL>
4.5307

>  <SCORE.SYSTEM.POLAR>
-3.05606

>  <SCORE.SYSTEM.SOLV>
-0.0546025

>  <SCORE.SYSTEM.VDW>
-4.74656

>  <SCORE.SYSTEM.norm>
-2.01621

>  <SCORE.heavy>
10

>  <SCORE.norm>
-4.3535

$$$$
P59177859
 OpenBabel12072022113D
libRbt.so/2013.1/901 2013/11/27
 11 11  0  0  0  0  0  0  0  0999 V2000
  -29.6971   17.4905  -17.6676 C   0  0  0  0  0  0  0  0  0  0  0  0
  -30.7126   18.4112  -18.3408 C   0  0  0  0  0  0  0  0  0  0  0  0
  -32.0629   18.3470  -17.6273 C   0  0  1  0  0  0  0  0  0  0  0  0
  -31.9168   18.6660  -16.2481 O   0  0  0  0  0  0  0  0  0  0  0  0
  -31.0708   17.7282  -15.5688 C   0  0  0  0  0  0  0  0  0  0  0  0
  -29.6715   17.7597  -16.1644 C   0  0  1  0  0  0  0  0  0  0  0  0
  -28.8281   16.7297  -15.4748 N   0  3  0  0  0  0  0  0  0  0  0  0
  -29.2372   15.5615  -15.4666 O   0  0  0  0  0  0  0  0  0  0  0  0
  -27.7743   17.1248  -14.9625 O   0  5  0  0  0  0  0  0  0  0  0  0
  -32.9524   19.2808  -18.2016 O   0  0  0  0  0  0  0  0  0  0  0  0
  -32.6111   20.1529  -17.9440 H   0  0  0  0  0  0  0  0  0  0  0  0
  1  2  1  0  0  0  0
  1  6  1  0  0  0  0
  2  3  1  0  0  0  0
  3  4  1  0  0  0  0
  3 10  1  6  0  0  0
  4  5  1  0  0  0  0
  5  6  1  0  0  0  0
  6  7  1  1  0  0  0
  7  8  2  0  0  0  0
  7  9  1  0  0  0  0
 10 11  1  0  0  0  0
M  CHG  2   7   1   9  -1
M  END
>  <CHROM.0>
-59.32029173,-63.67912133,-63.78051205,-43.53002398,-57.30355159,-62.77275202
-65.96232023,-60.20217273,-168.81133679

>  <CHROM.1>
-69.74569093,-67.07607684,-30.40545180,17.71933765,-16.55843894,-0.63047911
0.41958323,-1.32597074

>  <Name>
P59177859

>  <RI>
0

>  <Rbt.Current_Directory>
/home/fstefaniak/projects/zuza/docking/adenine/4TZX

>  <Rbt.Executable>
rbdock ($Id: //depot/dev/client3/rdock/2013.1/src/exe/rbdock.cxx#4 $)

>  <Rbt.Library>
libRbt.so (2013.1, Build901 2013/11/27)

>  <Rbt.Parameter_File>
/home/fstefaniak/progs/rDock//data/scripts/dock_solv.prm

>  <Rbt.Receptor>
4tzx.prm

>  <SCORE>
-43.2893

>  <SCORE.INTER>
-22.184

>  <SCORE.INTER.CONST>
1

>  <SCORE.INTER.POLAR>
-2.67517

>  <SCORE.INTER.ROT>
1

>  <SCORE.INTER.SOLV>
10.3412

>  <SCORE.INTER.VDW>
-13.5858

>  <SCORE.INTER.norm>
-2.2184

>  <SCORE.INTRA>
0.077985

>  <SCORE.INTRA.DIHEDRAL>
0.14018

>  <SCORE.INTRA.DIHEDRAL.0>
2.72381

>  <SCORE.INTRA.POLAR>
0

>  <SCORE.INTRA.POLAR.0>
0

>  <SCORE.INTRA.REPUL>
0

>  <SCORE.INTRA.REPUL.0>
0

>  <SCORE.INTRA.SOLV>
0.0019945

>  <SCORE.INTRA.SOLV.lig_0>
-10.8276

>  <SCORE.INTRA.VDW>
0.00689767

>  <SCORE.INTRA.VDW.0>
0.156365

>  <SCORE.INTRA.norm>
0.0077985

>  <SCORE.RESTR>
0

>  <SCORE.RESTR.CAVITY>
0

>  <SCORE.RESTR.norm>
0

>  <SCORE.SYSTEM>
-21.1832

>  <SCORE.SYSTEM.CONST>
0

>  <SCORE.SYSTEM.DIHEDRAL>
4.25935

>  <SCORE.SYSTEM.POLAR>
-3.05158

>  <SCORE.SYSTEM.SOLV>
0.188456

>  <SCORE.SYSTEM.VDW>
-5.43283

>  <SCORE.SYSTEM.norm>
-2.11832

>  <SCORE.heavy>
10

>  <SCORE.norm>
-4.32893

$$$$
P59177859
 OpenBabel12072022113D
libRbt.so/2013.1/901 2013/11/27
 11 11  0  0  0  0  0  0  0  0999 V2000
  -29.6589   17.5014  -17.6776 C   0  0  0  0  0  0  0  0  0  0  0  0
  -30.6719   18.4313  -18.3421 C   0  0  0  0  0  0  0  0  0  0  0  0
  -32.0325   18.3367  -17.6520 C   0  0  1  0  0  0  0  0  0  0  0  0
  -31.9107   18.6200  -16.2626 O   0  0  0  0  0  0  0  0  0  0  0  0
  -31.0671   17.6714  -15.5953 C   0  0  0  0  0  0  0  0  0  0  0  0
  -29.6591   17.7305  -16.1676 C   0  0  1  0  0  0  0  0  0  0  0  0
  -28.8175   16.6895  -15.4925 N   0  3  0  0  0  0  0  0  0  0  0  0
  -29.2454   15.5283  -15.4700 O   0  0  0  0  0  0  0  0  0  0  0  0
  -27.7462   17.0693  -15.0054 O   0  5  0  0  0  0  0  0  0  0  0  0
  -32.9211   19.2781  -18.2152 O   0  0  0  0  0  0  0  0  0  0  0  0
  -32.5905   20.1459  -17.9306 H   0  0  0  0  0  0  0  0  0  0  0  0
  1  2  1  0  0  0  0
  1  6  1  0  0  0  0
  2  3  1  0  0  0  0
  3  4  1  0  0  0  0
  3 10  1  6  0  0  0
  4  5  1  0  0  0  0
  5  6  1  0  0  0  0
  6  7  1  1  0  0  0
  7  8  2  0  0  0  0
  7  9  1  0  0  0  0
 10 11  1  0  0  0  0
M  CHG  2   7   1   9  -1
M  END
>  <CHROM.0>
-57.62386263,-61.75460942,-67.25462258,-42.65023107,-59.28654320,-60.18130448
-65.58013984,-57.20290849,-168.89593943

>  <CHROM.1>
-69.63607210,-70.22436257,-30.38641583,17.69457378,-16.57420130,-0.65676305
0.38327118,-1.25914752

>  <Name>
P59177859

>  <RI>
0

>  <Rbt.Current_Directory>
/home/fstefaniak/projects/zuza/docking/adenine/4TZX

>  <Rbt.Executable>
rbdock ($Id: //depot/dev/client3/rdock/2013.1/src/exe/rbdock.cxx#4 $)

>  <Rbt.Library>
libRbt.so (2013.1, Build901 2013/11/27)

>  <Rbt.Parameter_File>
/home/fstefaniak/progs/rDock//data/scripts/dock_solv.prm

>  <Rbt.Receptor>
4tzx.prm

>  <SCORE>
-43.1909

>  <SCORE.INTER>
-22.2032

>  <SCORE.INTER.CONST>
1

>  <SCORE.INTER.POLAR>
-2.71061

>  <SCORE.INTER.ROT>
1

>  <SCORE.INTER.SOLV>
10.2906

>  <SCORE.INTER.VDW>
-13.4637

>  <SCORE.INTER.norm>
-2.22032

>  <SCORE.INTRA>
0.118824

>  <SCORE.INTRA.DIHEDRAL>
0.131625

>  <SCORE.INTRA.DIHEDRAL.0>
2.72381

>  <SCORE.INTRA.POLAR>
0

>  <SCORE.INTRA.POLAR.0>
0

>  <SCORE.INTRA.REPUL>
0

>  <SCORE.INTRA.REPUL.0>
0

>  <SCORE.INTRA.SOLV>
0.00305474

>  <SCORE.INTRA.SOLV.lig_0>
-10.8276

>  <SCORE.INTRA.VDW>
0.0514836

>  <SCORE.INTRA.VDW.0>
0.156365

>  <SCORE.INTRA.norm>
0.0118824

>  <SCORE.RESTR>
0

>  <SCORE.RESTR.CAVITY>
0

>  <SCORE.RESTR.norm>
0

>  <SCORE.SYSTEM>
-21.1065

>  <SCORE.SYSTEM.CONST>
0

>  <SCORE.SYSTEM.DIHEDRAL>
4.47203

>  <SCORE.SYSTEM.POLAR>
-3.0733

>  <SCORE.SYSTEM.SOLV>
0.197631

>  <SCORE.SYSTEM.VDW>
-5.38321

>  <SCORE.SYSTEM.norm>
-2.11065

>  <SCORE.heavy>
10

>  <SCORE.norm>
-4.31909

$$$$
P59177859
 OpenBabel12072022113D
libRbt.so/2013.1/901 2013/11/27
 11 11  0  0  0  0  0  0  0  0999 V2000
  -29.7082   17.5166  -17.6642 C   0  0  0  0  0  0  0  0  0  0  0  0
  -30.7210   18.4522  -18.3209 C   0  0  0  0  0  0  0  0  0  0  0  0
  -32.0880   18.3342  -17.6475 C   0  0  1  0  0  0  0  0  0  0  0  0
  -31.9830   18.5907  -16.2515 O   0  0  0  0  0  0  0  0  0  0  0  0
  -31.1397   17.6350  -15.5941 C   0  0  0  0  0  0  0  0  0  0  0  0
  -29.7261   17.7156  -16.1500 C   0  0  1  0  0  0  0  0  0  0  0  0
  -28.8841   16.6673  -15.4867 N   0  3  0  0  0  0  0  0  0  0  0  0
  -27.8152   17.0253  -14.9755 O   0  0  0  0  0  0  0  0  0  0  0  0
  -29.3239   15.5116  -15.4958 O   0  5  0  0  0  0  0  0  0  0  0  0
  -32.9775   19.2803  -18.2014 O   0  0  0  0  0  0  0  0  0  0  0  0
  -32.6458   20.1457  -17.9109 H   0  0  0  0  0  0  0  0  0  0  0  0
  1  2  1  0  0  0  0
  1  6  1  0  0  0  0
  2  3  1  0  0  0  0
  3  4  1  0  0  0  0
  3 10  1  6  0  0  0
  4  5  1  0  0  0  0
  5  6  1  0  0  0  0
  6  7  1  1  0  0  0
  7  8  2  0  0  0  0
  7  9  1  0  0  0  0
 10 11  1  0  0  0  0
M  CHG  2   7   1   9  -1
M  END
>  <CHROM.0>
-60.12614013,-63.12784092,-64.83692598,-42.43053661,-56.45321226,-61.96233227
-67.22499216,-59.42430775,-168.93589773

>  <CHROM.1>
-68.52100027,109.54098844,-30.45032417,17.68132951,-16.56500769,-0.66643362
0.37182527,-1.23427929

>  <Name>
P59177859

>  <RI>
0

>  <Rbt.Current_Directory>
/home/fstefaniak/projects/zuza/docking/adenine/4TZX

>  <Rbt.Executable>
rbdock ($Id: //depot/dev/client3/rdock/2013.1/src/exe/rbdock.cxx#4 $)

>  <Rbt.Library>
libRbt.so (2013.1, Build901 2013/11/27)

>  <Rbt.Parameter_File>
/home/fstefaniak/progs/rDock//data/scripts/dock_solv.prm

>  <Rbt.Receptor>
4tzx.prm

>  <SCORE>
-43.1269

>  <SCORE.INTER>
-22.114

>  <SCORE.INTER.CONST>
1

>  <SCORE.INTER.POLAR>
-2.69401

>  <SCORE.INTER.ROT>
1

>  <SCORE.INTER.SOLV>
10.3471

>  <SCORE.INTER.VDW>
-13.4783

>  <SCORE.INTER.norm>
-2.2114

>  <SCORE.INTRA>
0.164601

>  <SCORE.INTRA.DIHEDRAL>
0.0251033

>  <SCORE.INTRA.DIHEDRAL.0>
2.72381

>  <SCORE.INTRA.POLAR>
0

>  <SCORE.INTRA.POLAR.0>
0

>  <SCORE.INTRA.REPUL>
0

>  <SCORE.INTRA.REPUL.0>
0

>  <SCORE.INTRA.SOLV>
0.00409587

>  <SCORE.INTRA.SOLV.lig_0>
-10.8276

>  <SCORE.INTRA.VDW>
0.150001

>  <SCORE.INTRA.VDW.0>
0.156365

>  <SCORE.INTRA.norm>
0.0164601

>  <SCORE.RESTR>
0

>  <SCORE.RESTR.CAVITY>
0

>  <SCORE.RESTR.norm>
0

>  <SCORE.SYSTEM>
-21.1775

>  <SCORE.SYSTEM.CONST>
0

>  <SCORE.SYSTEM.DIHEDRAL>
4.50785

>  <SCORE.SYSTEM.POLAR>
-3.06556

>  <SCORE.SYSTEM.SOLV>
0.188236

>  <SCORE.SYSTEM.VDW>
-5.46514

>  <SCORE.SYSTEM.norm>
-2.11775

>  <SCORE.heavy>
10

>  <SCORE.norm>
-4.31269

$$$$
P59177909
 OpenBabel12072022113D
libRbt.so/2013.1/901 2013/11/27
 11 11  0  0  0  0  0  0  0  0999 V2000
  -29.9172   15.2282  -15.7635 C   0  0  0  0  0  0  0  0  0  0  0  0
  -29.8218   16.7173  -16.1166 C   0  0  2  0  0  0  0  0  0  0  0  0
  -30.9070   17.5059  -15.2876 C   0  0  2  0  0  0  0  0  0  0  0  0
  -31.0188   18.8705  -15.7086 O   0  0  0  0  0  0  0  0  0  0  0  0
  -31.2912   18.9291  -17.1109 C   0  0  0  0  0  0  0  0  0  0  0  0
  -30.1863   18.2346  -17.9015 C   0  0  0  0  0  0  0  0  0  0  0  0
  -30.0747   16.8550  -17.5265 O   0  0  0  0  0  0  0  0  0  0  0  0
  -30.5913   17.5073  -13.8997 O   0  0  0  0  0  0  0  0  0  0  0  0
  -28.5314   17.2481  -15.7474 O   0  0  0  0  0  0  0  0  0  0  0  0
  -27.4232   16.4571  -16.1521 C   0  0  0  0  0  0  0  0  0  0  0  0
  -30.0121   18.2866  -13.8017 H   0  0  0  0  0  0  0  0  0  0  0  0
  2  3  1  0  0  0  0
  2  7  1  0  0  0  0
  2  9  1  0  0  0  0
  2  1  1  1  0  0  0
  3  4  1  0  0  0  0
  3  8  1  1  0  0  0
  4  5  1  0  0  0  0
  5  6  1  0  0  0  0
  6  7  1  0  0  0  0
  8 11  1  0  0  0  0
  9 10  1  0  0  0  0
M  END
>  <CHROM.0>
-59.79656725,-170.62217154,-65.64265044,-43.33688364,-57.13074078,-63.90024379
-68.97510218,-56.78526291,-169.00880632

>  <CHROM.1>
47.34716602,87.51646383,-29.95866773,17.36282305,-16.08780215,0.31443183
-0.70972327,1.83222882

>  <Name>
P59177909

>  <RI>
0

>  <Rbt.Current_Directory>
/home/fstefaniak/projects/zuza/docking/adenine/4TZX

>  <Rbt.Executable>
rbdock ($Id: //depot/dev/client3/rdock/2013.1/src/exe/rbdock.cxx#4 $)

>  <Rbt.Library>
libRbt.so (2013.1, Build901 2013/11/27)

>  <Rbt.Parameter_File>
/home/fstefaniak/progs/rDock//data/scripts/dock_solv.prm

>  <Rbt.Receptor>
4tzx.prm

>  <SCORE>
-41.2751

>  <SCORE.INTER>
-24.7478

>  <SCORE.INTER.CONST>
1

>  <SCORE.INTER.POLAR>
-3.76275

>  <SCORE.INTER.ROT>
1

>  <SCORE.INTER.SOLV>
9.30002

>  <SCORE.INTER.VDW>
-11.3227

>  <SCORE.INTER.norm>
-2.47478

>  <SCORE.INTRA>
4.44231

>  <SCORE.INTRA.DIHEDRAL>
3.27848

>  <SCORE.INTRA.DIHEDRAL.0>
0.69592

>  <SCORE.INTRA.POLAR>
0.212985

>  <SCORE.INTRA.POLAR.0>
-0.212985

>  <SCORE.INTRA.REPUL>
0

>  <SCORE.INTRA.REPUL.0>
0

>  <SCORE.INTRA.SOLV>
0.0403102

>  <SCORE.INTRA.SOLV.lig_0>
-9.12406

>  <SCORE.INTRA.VDW>
2.05877

>  <SCORE.INTRA.VDW.0>
3.19282

>  <SCORE.INTRA.norm>
0.444231

>  <SCORE.RESTR>
0

>  <SCORE.RESTR.CAVITY>
0

>  <SCORE.RESTR.norm>
0

>  <SCORE.SYSTEM>
-20.9696

>  <SCORE.SYSTEM.CONST>
0

>  <SCORE.SYSTEM.DIHEDRAL>
4.98119

>  <SCORE.SYSTEM.POLAR>
-3.05688

>  <SCORE.SYSTEM.SOLV>
0.147094

>  <SCORE.SYSTEM.VDW>
-5.49958

>  <SCORE.SYSTEM.norm>
-2.09696

>  <SCORE.heavy>
10

>  <SCORE.norm>
-4.12751

$$$$
P59177909
 OpenBabel12072022113D
libRbt.so/2013.1/901 2013/11/27
 11 11  0  0  0  0  0  0  0  0999 V2000
  -29.9300   15.2265  -15.7206 C   0  0  0  0  0  0  0  0  0  0  0  0
  -29.8211   16.7140  -16.0766 C   0  0  2  0  0  0  0  0  0  0  0  0
  -30.9000   17.5137  -15.2500 C   0  0  2  0  0  0  0  0  0  0  0  0
  -30.9994   18.8785  -15.6737 O   0  0  0  0  0  0  0  0  0  0  0  0
  -31.2701   18.9367  -17.0764 C   0  0  0  0  0  0  0  0  0  0  0  0
  -30.1706   18.2311  -17.8646 C   0  0  0  0  0  0  0  0  0  0  0  0
  -30.0715   16.8512  -17.4869 O   0  0  0  0  0  0  0  0  0  0  0  0
  -30.5856   17.5150  -13.8618 O   0  0  0  0  0  0  0  0  0  0  0  0
  -28.5264   17.2342  -15.7071 O   0  0  0  0  0  0  0  0  0  0  0  0
  -27.4231   16.4552  -16.1472 C   0  0  0  0  0  0  0  0  0  0  0  0
  -29.9981   18.2883  -13.7651 H   0  0  0  0  0  0  0  0  0  0  0  0
  2  3  1  0  0  0  0
  2  7  1  0  0  0  0
  2  9  1  0  0  0  0
  2  1  1  1  0  0  0
  3  4  1  0  0  0  0
  3  8  1  1  0  0  0
  4  5  1  0  0  0  0
  5  6  1  0  0  0  0
  6  7  1  0  0  0  0
  8 11  1  0  0  0  0
  9 10  1  0  0  0  0
M  END
>  <CHROM.0>
-61.26111911,-172.24345684,-64.49065726,-42.95129133,-58.15941918,-60.13805378
-64.17461726,-175.15423581,-169.43455264

>  <CHROM.1>
49.30655102,87.40024843,-29.95212231,17.36307556,-16.05293273,0.30973767
-0.71584040,1.84009052

>  <Name>
P59177909

>  <RI>
0

>  <Rbt.Current_Directory>
/home/fstefaniak/projects/zuza/docking/adenine/4TZX

>  <Rbt.Executable>
rbdock ($Id: //depot/dev/client3/rdock/2013.1/src/exe/rbdock.cxx#4 $)

>  <Rbt.Library>
libRbt.so (2013.1, Build901 2013/11/27)

>  <Rbt.Parameter_File>
/home/fstefaniak/progs/rDock//data/scripts/dock_solv.prm

>  <Rbt.Receptor>
4tzx.prm

>  <SCORE>
-41.2315

>  <SCORE.INTER>
-24.2389

>  <SCORE.INTER.CONST>
1

>  <SCORE.INTER.POLAR>
-3.73219

>  <SCORE.INTER.ROT>
1

>  <SCORE.INTER.SOLV>
9.3078

>  <SCORE.INTER.VDW>
-11.0879

>  <SCORE.INTER.norm>
-2.42389

>  <SCORE.INTRA>
3.9052

>  <SCORE.INTRA.DIHEDRAL>
3.0354

>  <SCORE.INTRA.DIHEDRAL.0>
0.69592

>  <SCORE.INTRA.POLAR>
0.212985

>  <SCORE.INTRA.POLAR.0>
-0.212985

>  <SCORE.INTRA.REPUL>
0

>  <SCORE.INTRA.REPUL.0>
0

>  <SCORE.INTRA.SOLV>
0.0390312

>  <SCORE.INTRA.SOLV.lig_0>
-9.12406

>  <SCORE.INTRA.VDW>
1.64383

>  <SCORE.INTRA.VDW.0>
3.19282

>  <SCORE.INTRA.norm>
0.39052

>  <SCORE.RESTR>
0

>  <SCORE.RESTR.CAVITY>
0

>  <SCORE.RESTR.norm>
0

>  <SCORE.SYSTEM>
-20.8979

>  <SCORE.SYSTEM.CONST>
0

>  <SCORE.SYSTEM.DIHEDRAL>
4.5077

>  <SCORE.SYSTEM.POLAR>
-3.03835

>  <SCORE.SYSTEM.SOLV>
0.03132

>  <SCORE.SYSTEM.VDW>
-5.31709

>  <SCORE.SYSTEM.norm>
-2.08979

>  <SCORE.heavy>
10

>  <SCORE.norm>
-4.12315

$$$$
P59177909
 OpenBabel12072022113D
libRbt.so/2013.1/901 2013/11/27
 11 11  0  0  0  0  0  0  0  0999 V2000
  -29.9126   15.2287  -15.7309 C   0  0  0  0  0  0  0  0  0  0  0  0
  -29.8184   16.7155  -16.0934 C   0  0  2  0  0  0  0  0  0  0  0  0
  -30.9051   17.5082  -15.2703 C   0  0  2  0  0  0  0  0  0  0  0  0
  -31.0180   18.8701  -15.7000 O   0  0  0  0  0  0  0  0  0  0  0  0
  -31.2893   18.9194  -17.1029 C   0  0  0  0  0  0  0  0  0  0  0  0
  -30.1830   18.2211  -17.8881 C   0  0  0  0  0  0  0  0  0  0  0  0
  -30.0703   16.8440  -17.5043 O   0  0  0  0  0  0  0  0  0  0  0  0
  -30.5906   17.5188  -13.8822 O   0  0  0  0  0  0  0  0  0  0  0  0
  -28.5289   17.2501  -15.7264 O   0  0  0  0  0  0  0  0  0  0  0  0
  -27.4181   16.4783  -16.1602 C   0  0  0  0  0  0  0  0  0  0  0  0
  -30.0316   18.3128  -13.7843 H   0  0  0  0  0  0  0  0  0  0  0  0
  2  3  1  0  0  0  0
  2  7  1  0  0  0  0
  2  9  1  0  0  0  0
  2  1  1  1  0  0  0
  3  4  1  0  0  0  0
  3  8  1  1  0  0  0
  4  5  1  0  0  0  0
  5  6  1  0  0  0  0
  6  7  1  0  0  0  0
  8 11  1  0  0  0  0
  9 10  1  0  0  0  0
M  END
>  <CHROM.0>
-54.63117714,-171.33648896,-62.30501701,-42.16108675,-55.20700804,-57.31598096
-65.57207099,-55.60168262,-169.84983209

>  <CHROM.1>
49.15322003,88.96077721,-29.95599243,17.36329443,-16.07231265,0.30626083
-0.70664580,1.83278329

>  <Name>
P59177909

>  <RI>
0

>  <Rbt.Current_Directory>
/home/fstefaniak/projects/zuza/docking/adenine/4TZX

>  <Rbt.Executable>
rbdock ($Id: //depot/dev/client3/rdock/2013.1/src/exe/rbdock.cxx#4 $)

>  <Rbt.Library>
libRbt.so (2013.1, Build901 2013/11/27)

>  <Rbt.Parameter_File>
/home/fstefaniak/progs/rDock//data/scripts/dock_solv.prm

>  <Rbt.Receptor>
4tzx.prm

>  <SCORE>
-40.8958

>  <SCORE.INTER>
-24.3505

>  <SCORE.INTER.CONST>
1

>  <SCORE.INTER.POLAR>
-3.79544

>  <SCORE.INTER.ROT>
1

>  <SCORE.INTER.SOLV>
9.29683

>  <SCORE.INTER.VDW>
-10.9478

>  <SCORE.INTER.norm>
-2.43505

>  <SCORE.INTRA>
4.09112

>  <SCORE.INTRA.DIHEDRAL>
3.34188

>  <SCORE.INTRA.DIHEDRAL.0>
0.69592

>  <SCORE.INTRA.POLAR>
0.212985

>  <SCORE.INTRA.POLAR.0>
-0.212985

>  <SCORE.INTRA.REPUL>
0

>  <SCORE.INTRA.REPUL.0>
0

>  <SCORE.INTRA.SOLV>
0.0404449

>  <SCORE.INTRA.SOLV.lig_0>
-9.12406

>  <SCORE.INTRA.VDW>
1.67581

>  <SCORE.INTRA.VDW.0>
3.19282

>  <SCORE.INTRA.norm>
0.409112

>  <SCORE.RESTR>
0

>  <SCORE.RESTR.CAVITY>
0

>  <SCORE.RESTR.norm>
0

>  <SCORE.SYSTEM>
-20.6365

>  <SCORE.SYSTEM.CONST>
0

>  <SCORE.SYSTEM.DIHEDRAL>
4.87558

>  <SCORE.SYSTEM.POLAR>
-3.11003

>  <SCORE.SYSTEM.SOLV>
0.189939

>  <SCORE.SYSTEM.VDW>
-5.07939

>  <SCORE.SYSTEM.norm>
-2.06365

>  <SCORE.heavy>
10

>  <SCORE.norm>
-4.08958

$$$$
P59178709
 OpenBabel12072022113D
libRbt.so/2013.1/901 2013/11/27
 12 12  0  0  0  0  0  0  0  0999 V2000
  -31.7434   17.8465  -12.4929 H   0  0  0  0  0  0  0  0  0  0  0  0
  -32.1873   18.0868  -13.3811 N   0  0  0  0  0  0  0  0  0  0  0  0
  -31.3759   17.8346  -14.3297 C   0  0  0  0  0  0  0  0  0  0  0  0
  -30.1131   17.3411  -14.2281 N   0  0  0  0  0  0  0  0  0  0  0  0
  -29.4351   17.3286  -15.5223 C   0  0  0  0  0  0  0  0  0  0  0  0
  -30.6220   17.4061  -16.5042 C   0  0  1  0  0  0  0  0  0  0  0  0
  -31.6463   18.0060  -15.6473 N   0  0  0  0  0  0  0  0  0  0  0  0
  -30.2651   18.2251  -17.7336 C   0  0  0  0  0  0  0  0  0  0  0  0
  -29.6721   17.7283  -18.6905 O   0  0  0  0  0  0  0  0  0  0  0  0
  -30.9113   19.8454  -17.6996 Cl  0  0  0  0  0  0  0  0  0  0  0  0
  -29.5798   17.5416  -13.3927 H   0  0  0  0  0  0  0  0  0  0  0  0
  -32.6211   18.0348  -15.9184 H   0  0  0  0  0  0  0  0  0  0  0  0
  1  2  1  0  0  0  0
  2  3  2  0  0  0  0
  3  4  1  0  0  0  0
  3  7  1  0  0  0  0
  4  5  1  0  0  0  0
  4 11  1  0  0  0  0
  5  6  1  0  0  0  0
  6  7  1  0  0  0  0
  6  8  1  6  0  0  0
  7 12  1  0  0  0  0
  8  9  2  0  0  0  0
  8 10  1  0  0  0  0
M  END
>  <CHROM.0>
-61.63060060,-170.95765140,-66.32888791,-44.33048448,-177.00456840,-61.38340411
-64.78821890,-61.44861834,-169.05967030

>  <CHROM.1>
83.80286441,-30.71969880,18.24488892,-16.21169242,1.85079022,-0.79278409
2.05690318

>  <Name>
P59178709

>  <RI>
0

>  <Rbt.Current_Directory>
/home/fstefaniak/projects/zuza/docking/adenine/4TZX

>  <Rbt.Executable>
rbdock ($Id: //depot/dev/client3/rdock/2013.1/src/exe/rbdock.cxx#4 $)

>  <Rbt.Library>
libRbt.so (2013.1, Build901 2013/11/27)

>  <Rbt.Parameter_File>
/home/fstefaniak/progs/rDock//data/scripts/dock_solv.prm

>  <Rbt.Receptor>
4tzx.prm

>  <SCORE>
-55.6167

>  <SCORE.INTER>
-34.4048

>  <SCORE.INTER.CONST>
1

>  <SCORE.INTER.POLAR>
-4.0447

>  <SCORE.INTER.ROT>
1

>  <SCORE.INTER.SOLV>
13.3531

>  <SCORE.INTER.VDW>
-18.1719

>  <SCORE.INTER.norm>
-3.82275

>  <SCORE.INTRA>
-0.118072

>  <SCORE.INTRA.DIHEDRAL>
0.492606

>  <SCORE.INTRA.DIHEDRAL.0>
1.47355

>  <SCORE.INTRA.POLAR>
0

>  <SCORE.INTRA.POLAR.0>
0

>  <SCORE.INTRA.REPUL>
0

>  <SCORE.INTRA.REPUL.0>
0

>  <SCORE.INTRA.SOLV>
0.0104532

>  <SCORE.INTRA.SOLV.lig_0>
-16.4933

>  <SCORE.INTRA.VDW>
-0.369601

>  <SCORE.INTRA.VDW.0>
-0.167551

>  <SCORE.INTRA.norm>
-0.0131191

>  <SCORE.RESTR>
0

>  <SCORE.RESTR.CAVITY>
0

>  <SCORE.RESTR.norm>
0

>  <SCORE.SYSTEM>
-21.0939

>  <SCORE.SYSTEM.CONST>
0

>  <SCORE.SYSTEM.DIHEDRAL>
4.50903

>  <SCORE.SYSTEM.POLAR>
-3.00759

>  <SCORE.SYSTEM.SOLV>
-0.0363379

>  <SCORE.SYSTEM.VDW>
-5.52815

>  <SCORE.SYSTEM.norm>
-2.34376

>  <SCORE.heavy>
9

>  <SCORE.norm>
-6.17963

$$$$
P59178709
 OpenBabel12072022113D
libRbt.so/2013.1/901 2013/11/27
 12 12  0  0  0  0  0  0  0  0999 V2000
  -31.7339   17.8365  -12.4675 H   0  0  0  0  0  0  0  0  0  0  0  0
  -32.1809   18.0620  -13.3581 N   0  0  0  0  0  0  0  0  0  0  0  0
  -31.3650   17.8141  -14.3040 C   0  0  0  0  0  0  0  0  0  0  0  0
  -30.0947   17.3414  -14.1974 N   0  0  0  0  0  0  0  0  0  0  0  0
  -29.4157   17.3281  -15.4910 C   0  0  0  0  0  0  0  0  0  0  0  0
  -30.6030   17.3782  -16.4742 C   0  0  1  0  0  0  0  0  0  0  0  0
  -31.6372   17.9695  -15.6232 N   0  0  0  0  0  0  0  0  0  0  0  0
  -30.2582   18.1917  -17.7106 C   0  0  0  0  0  0  0  0  0  0  0  0
  -29.6675   17.6928  -18.6678 O   0  0  0  0  0  0  0  0  0  0  0  0
  -30.9143   19.8082  -17.6830 Cl  0  0  0  0  0  0  0  0  0  0  0  0
  -29.5652   17.5577  -13.3635 H   0  0  0  0  0  0  0  0  0  0  0  0
  -32.6122   17.9806  -15.8950 H   0  0  0  0  0  0  0  0  0  0  0  0
  1  2  1  0  0  0  0
  2  3  2  0  0  0  0
  3  4  1  0  0  0  0
  3  7  1  0  0  0  0
  4  5  1  0  0  0  0
  4 11  1  0  0  0  0
  5  6  1  0  0  0  0
  6  7  1  0  0  0  0
  6  8  1  6  0  0  0
  7 12  1  0  0  0  0
  8  9  2  0  0  0  0
  8 10  1  0  0  0  0
M  END
>  <CHROM.0>
-61.68397130,-171.84682916,-65.89520640,-42.81486912,-179.42357245,-62.02030708
-66.78296749,-58.56438345,-168.63721509

>  <CHROM.1>
84.46840726,-30.71153260,18.21906245,-16.18773312,1.84551288,-0.78506862
2.04586388

>  <Name>
P59178709

>  <RI>
0

>  <Rbt.Current_Directory>
/home/fstefaniak/projects/zuza/docking/adenine/4TZX

>  <Rbt.Executable>
rbdock ($Id: //depot/dev/client3/rdock/2013.1/src/exe/rbdock.cxx#4 $)

>  <Rbt.Library>
libRbt.so (2013.1, Build901 2013/11/27)

>  <Rbt.Parameter_File>
/home/fstefaniak/progs/rDock//data/scripts/dock_solv.prm

>  <Rbt.Receptor>
4tzx.prm

>  <SCORE>
-55.5611

>  <SCORE.INTER>
-34.2724

>  <SCORE.INTER.CONST>
1

>  <SCORE.INTER.POLAR>
-3.96612

>  <SCORE.INTER.ROT>
1

>  <SCORE.INTER.SOLV>
13.3369

>  <SCORE.INTER.VDW>
-18.3402

>  <SCORE.INTER.norm>
-3.80804

>  <SCORE.INTRA>
-0.137601

>  <SCORE.INTRA.DIHEDRAL>
0.465168

>  <SCORE.INTRA.DIHEDRAL.0>
1.47355

>  <SCORE.INTRA.POLAR>
0

>  <SCORE.INTRA.POLAR.0>
0

>  <SCORE.INTRA.REPUL>
0

>  <SCORE.INTRA.REPUL.0>
0

>  <SCORE.INTRA.SOLV>
0.0110675

>  <SCORE.INTRA.SOLV.lig_0>
-16.4933

>  <SCORE.INTRA.VDW>
-0.375719

>  <SCORE.INTRA.VDW.0>
-0.167551

>  <SCORE.INTRA.norm>
-0.015289

>  <SCORE.RESTR>
0

>  <SCORE.RESTR.CAVITY>
0

>  <SCORE.RESTR.norm>
0

>  <SCORE.SYSTEM>
-21.1511

>  <SCORE.SYSTEM.CONST>
0

>  <SCORE.SYSTEM.DIHEDRAL>
4.73987

>  <SCORE.SYSTEM.POLAR>
-3.04686

>  <SCORE.SYSTEM.SOLV>
-0.0342068

>  <SCORE.SYSTEM.VDW>
-5.51306

>  <SCORE.SYSTEM.norm>
-2.35012

>  <SCORE.heavy>
9

>  <SCORE.norm>
-6.17345

$$$$
P59178709
 OpenBabel12072022113D
libRbt.so/2013.1/901 2013/11/27
 12 12  0  0  0  0  0  0  0  0999 V2000
  -31.7887   17.8057  -12.4904 H   0  0  0  0  0  0  0  0  0  0  0  0
  -32.2344   18.0103  -13.3866 N   0  0  0  0  0  0  0  0  0  0  0  0
  -31.3977   17.7956  -14.3223 C   0  0  0  0  0  0  0  0  0  0  0  0
  -30.1097   17.3777  -14.1999 N   0  0  0  0  0  0  0  0  0  0  0  0
  -29.4157   17.3909  -15.4855 C   0  0  0  0  0  0  0  0  0  0  0  0
  -30.5924   17.3885  -16.4825 C   0  0  1  0  0  0  0  0  0  0  0  0
  -31.6608   17.9368  -15.6450 N   0  0  0  0  0  0  0  0  0  0  0  0
  -30.2682   18.2137  -17.7168 C   0  0  0  0  0  0  0  0  0  0  0  0
  -29.6982   17.7225  -18.6904 O   0  0  0  0  0  0  0  0  0  0  0  0
  -30.9169   19.8324  -17.6596 Cl  0  0  0  0  0  0  0  0  0  0  0  0
  -29.5997   17.6179  -13.3604 H   0  0  0  0  0  0  0  0  0  0  0  0
  -32.6321   17.9059  -15.9282 H   0  0  0  0  0  0  0  0  0  0  0  0
  1  2  1  0  0  0  0
  2  3  2  0  0  0  0
  3  4  1  0  0  0  0
  3  7  1  0  0  0  0
  4  5  1  0  0  0  0
  4 11  1  0  0  0  0
  5  6  1  0  0  0  0
  6  7  1  0  0  0  0
  6  8  1  6  0  0  0
  7 12  1  0  0  0  0
  8  9  2  0  0  0  0
  8 10  1  0  0  0  0
M  END
>  <CHROM.0>
-61.85720912,-168.74455353,-65.73235105,-43.82375584,-59.66355703,-63.34423919
-67.74759654,-61.07783155,-169.16050356

>  <CHROM.1>
87.76038011,-30.72747834,18.23037536,-16.19214426,1.85315171,-0.77443271
2.05730580

>  <Name>
P59178709

>  <RI>
0

>  <Rbt.Current_Directory>
/home/fstefaniak/projects/zuza/docking/adenine/4TZX

>  <Rbt.Executable>
rbdock ($Id: //depot/dev/client3/rdock/2013.1/src/exe/rbdock.cxx#4 $)

>  <Rbt.Library>
libRbt.so (2013.1, Build901 2013/11/27)

>  <Rbt.Parameter_File>
/home/fstefaniak/progs/rDock//data/scripts/dock_solv.prm

>  <Rbt.Receptor>
4tzx.prm

>  <SCORE>
-55.3846

>  <SCORE.INTER>
-34.2276

>  <SCORE.INTER.CONST>
1

>  <SCORE.INTER.POLAR>
-3.99963

>  <SCORE.INTER.ROT>
1

>  <SCORE.INTER.SOLV>
13.3533

>  <SCORE.INTER.VDW>
-18.2041

>  <SCORE.INTER.norm>
-3.80307

>  <SCORE.INTRA>
-0.237069

>  <SCORE.INTRA.DIHEDRAL>
0.324314

>  <SCORE.INTRA.DIHEDRAL.0>
1.47355

>  <SCORE.INTRA.POLAR>
0

>  <SCORE.INTRA.POLAR.0>
0

>  <SCORE.INTRA.REPUL>
0

>  <SCORE.INTRA.REPUL.0>
0

>  <SCORE.INTRA.SOLV>
0.013842

>  <SCORE.INTRA.SOLV.lig_0>
-16.4933

>  <SCORE.INTRA.VDW>
-0.406147

>  <SCORE.INTRA.VDW.0>
-0.167551

>  <SCORE.INTRA.norm>
-0.026341

>  <SCORE.RESTR>
0

>  <SCORE.RESTR.CAVITY>
0

>  <SCORE.RESTR.norm>
0

>  <SCORE.SYSTEM>
-20.9199

>  <SCORE.SYSTEM.CONST>
0

>  <SCORE.SYSTEM.DIHEDRAL>
4.91048

>  <SCORE.SYSTEM.POLAR>
-3.02075

>  <SCORE.SYSTEM.SOLV>
0.135513

>  <SCORE.SYSTEM.VDW>
-5.55944

>  <SCORE.SYSTEM.norm>
-2.32443

>  <SCORE.heavy>
9

>  <SCORE.norm>
-6.15384

$$$$
P59182810
 OpenBabel12072022113D
libRbt.so/2013.1/901 2013/11/27
 13 13  0  0  0  0  0  0  0  0999 V2000
  -29.3312   15.9935  -16.9643 C   0  0  0  0  0  0  0  0  0  0  0  0
  -29.9513   16.9741  -17.7384 C   0  0  0  0  0  0  0  0  0  0  0  0
  -30.6178   18.0497  -17.1332 C   0  0  0  0  0  0  0  0  0  0  0  0
  -30.6540   18.1156  -15.7291 C   0  0  0  0  0  0  0  0  0  0  0  0
  -30.0379   17.1262  -14.9306 C   0  0  0  0  0  0  0  0  0  0  0  0
  -29.3726   16.0724  -15.5707 C   0  0  0  0  0  0  0  0  0  0  0  0
  -30.0078   17.1511  -13.5468 N   0  0  0  0  0  0  0  0  0  0  0  0
  -30.5730   18.1346  -13.0536 O   0  0  0  0  0  0  0  0  0  0  0  0
  -31.2995   19.2053  -15.1838 O   0  0  0  0  0  0  0  0  0  0  0  0
  -31.2949   19.0895  -17.9892 C   0  0  0  0  0  0  0  0  0  0  0  0
  -32.6049   18.6748  -18.3510 O   0  0  0  0  0  0  0  0  0  0  0  0
  -31.0622   19.2466  -14.2354 H   0  0  0  0  0  0  0  0  0  0  0  0
  -32.8894   19.2977  -19.0478 H   0  0  0  0  0  0  0  0  0  0  0  0
  1  2  2  0  0  0  0
  1  6  1  0  0  0  0
  2  3  1  0  0  0  0
  3  4  2  0  0  0  0
  3 10  1  0  0  0  0
  4  5  1  0  0  0  0
  4  9  1  0  0  0  0
  5  6  2  0  0  0  0
  5  7  1  0  0  0  0
  7  8  2  0  0  0  0
  9 12  1  0  0  0  0
 10 11  1  0  0  0  0
 11 13  1  0  0  0  0
M  END
>  <CHROM.0>
-60.97703075,-63.50311203,-63.43771910,-43.03768887,-57.36271209,-67.09521032
-66.66789749,-59.01537268,-168.79028390

>  <CHROM.1>
84.81259189,-166.13335346,-0.24115372,-168.02859551,-30.60151082,17.77215408
-15.99581299,-2.09642745,-0.88418182,1.39381715

>  <Name>
P59182810

>  <RI>
0

>  <Rbt.Current_Directory>
/home/fstefaniak/projects/zuza/docking/adenine/4TZX

>  <Rbt.Executable>
rbdock ($Id: //depot/dev/client3/rdock/2013.1/src/exe/rbdock.cxx#4 $)

>  <Rbt.Library>
libRbt.so (2013.1, Build901 2013/11/27)

>  <Rbt.Parameter_File>
/home/fstefaniak/progs/rDock//data/scripts/dock_solv.prm

>  <Rbt.Receptor>
4tzx.prm

>  <SCORE>
-51.2394

>  <SCORE.INTER>
-31.9529

>  <SCORE.INTER.CONST>
1

>  <SCORE.INTER.POLAR>
-4.1273

>  <SCORE.INTER.ROT>
2

>  <SCORE.INTER.SOLV>
11.6004

>  <SCORE.INTER.VDW>
-16.3444

>  <SCORE.INTER.norm>
-2.90481

>  <SCORE.INTRA>
1.88491

>  <SCORE.INTRA.DIHEDRAL>
-1.65903

>  <SCORE.INTRA.DIHEDRAL.0>
3.34367

>  <SCORE.INTRA.POLAR>
0.691028

>  <SCORE.INTRA.POLAR.0>
-0.691028

>  <SCORE.INTRA.REPUL>
0

>  <SCORE.INTRA.REPUL.0>
0

>  <SCORE.INTRA.SOLV>
-0.296813

>  <SCORE.INTRA.SOLV.lig_0>
-10.199

>  <SCORE.INTRA.VDW>
0.513339

>  <SCORE.INTRA.VDW.0>
-0.343007

>  <SCORE.INTRA.norm>
0.171356

>  <SCORE.RESTR>
0

>  <SCORE.RESTR.CAVITY>
0

>  <SCORE.RESTR.norm>
0

>  <SCORE.SYSTEM>
-21.1714

>  <SCORE.SYSTEM.CONST>
0

>  <SCORE.SYSTEM.DIHEDRAL>
4.55052

>  <SCORE.SYSTEM.POLAR>
-3.05379

>  <SCORE.SYSTEM.SOLV>
0.176608

>  <SCORE.SYSTEM.VDW>
-5.51064

>  <SCORE.SYSTEM.norm>
-1.92467

>  <SCORE.heavy>
11

>  <SCORE.norm>
-4.65813

$$$$
P59182810
 OpenBabel12072022113D
libRbt.so/2013.1/901 2013/11/27
 13 13  0  0  0  0  0  0  0  0999 V2000
  -29.3139   16.0197  -16.9549 C   0  0  0  0  0  0  0  0  0  0  0  0
  -29.9481   17.0010  -17.7167 C   0  0  0  0  0  0  0  0  0  0  0  0
  -30.6144   18.0691  -17.0982 C   0  0  0  0  0  0  0  0  0  0  0  0
  -30.6358   18.1269  -15.6935 C   0  0  0  0  0  0  0  0  0  0  0  0
  -30.0053   17.1366  -14.9073 C   0  0  0  0  0  0  0  0  0  0  0  0
  -29.3408   16.0904  -15.5606 C   0  0  0  0  0  0  0  0  0  0  0  0
  -29.9605   17.1538  -13.5239 N   0  0  0  0  0  0  0  0  0  0  0  0
  -30.5655   18.1065  -13.0174 O   0  0  0  0  0  0  0  0  0  0  0  0
  -31.2818   19.2096  -15.1351 O   0  0  0  0  0  0  0  0  0  0  0  0
  -31.3067   19.1098  -17.9409 C   0  0  0  0  0  0  0  0  0  0  0  0
  -32.5945   18.6635  -18.3424 O   0  0  0  0  0  0  0  0  0  0  0  0
  -31.0571   19.2304  -14.1829 H   0  0  0  0  0  0  0  0  0  0  0  0
  -32.8761   19.2843  -19.0422 H   0  0  0  0  0  0  0  0  0  0  0  0
  1  2  2  0  0  0  0
  1  6  1  0  0  0  0
  2  3  1  0  0  0  0
  3  4  2  0  0  0  0
  3 10  1  0  0  0  0
  4  5  1  0  0  0  0
  4  9  1  0  0  0  0
  5  6  2  0  0  0  0
  5  7  1  0  0  0  0
  7  8  2  0  0  0  0
  9 12  1  0  0  0  0
 10 11  1  0  0  0  0
 11 13  1  0  0  0  0
M  END
>  <CHROM.0>
-62.93058228,-59.46374113,-66.13150752,-42.14347574,-58.48609738,-58.72284687
-65.89206949,-176.66229802,-168.34243052

>  <CHROM.1>
82.12622812,-167.89051239,2.11052588,-166.83383812,-30.58574207,17.77966227
-15.96826778,-2.09775083,-0.87740028,1.39434120

>  <Name>
P59182810

>  <RI>
0

>  <Rbt.Current_Directory>
/home/fstefaniak/projects/zuza/docking/adenine/4TZX

>  <Rbt.Executable>
rbdock ($Id: //depot/dev/client3/rdock/2013.1/src/exe/rbdock.cxx#4 $)

>  <Rbt.Library>
libRbt.so (2013.1, Build901 2013/11/27)

>  <Rbt.Parameter_File>
/home/fstefaniak/progs/rDock//data/scripts/dock_solv.prm

>  <Rbt.Receptor>
4tzx.prm

>  <SCORE>
-51.0563

>  <SCORE.INTER>
-31.947

>  <SCORE.INTER.CONST>
1

>  <SCORE.INTER.POLAR>
-4.09822

>  <SCORE.INTER.ROT>
2

>  <SCORE.INTER.SOLV>
11.6053

>  <SCORE.INTER.VDW>
-16.4391

>  <SCORE.INTER.norm>
-2.90427

>  <SCORE.INTRA>
1.9243

>  <SCORE.INTRA.DIHEDRAL>
-1.58588

>  <SCORE.INTRA.DIHEDRAL.0>
3.34367

>  <SCORE.INTRA.POLAR>
0.691028

>  <SCORE.INTRA.POLAR.0>
-0.691028

>  <SCORE.INTRA.REPUL>
0

>  <SCORE.INTRA.REPUL.0>
0

>  <SCORE.INTRA.SOLV>
-0.309865

>  <SCORE.INTRA.SOLV.lig_0>
-10.199

>  <SCORE.INTRA.VDW>
0.522675

>  <SCORE.INTRA.VDW.0>
-0.343007

>  <SCORE.INTRA.norm>
0.174936

>  <SCORE.RESTR>
0

>  <SCORE.RESTR.CAVITY>
0

>  <SCORE.RESTR.norm>
0

>  <SCORE.SYSTEM>
-21.0336

>  <SCORE.SYSTEM.CONST>
0

>  <SCORE.SYSTEM.DIHEDRAL>
4.57888

>  <SCORE.SYSTEM.POLAR>
-3.05132

>  <SCORE.SYSTEM.SOLV>
0.0576275

>  <SCORE.SYSTEM.VDW>
-5.3968

>  <SCORE.SYSTEM.norm>
-1.91214

>  <SCORE.heavy>
11

>  <SCORE.norm>
-4.64148

$$$$
P59182810
 OpenBabel12072022113D
libRbt.so/2013.1/901 2013/11/27
 13 13  0  0  0  0  0  0  0  0999 V2000
  -29.3040   16.0239  -16.9797 C   0  0  0  0  0  0  0  0  0  0  0  0
  -29.9037   17.0138  -17.7582 C   0  0  0  0  0  0  0  0  0  0  0  0
  -30.5773   18.0876  -17.1579 C   0  0  0  0  0  0  0  0  0  0  0  0
  -30.6417   18.1425  -15.7543 C   0  0  0  0  0  0  0  0  0  0  0  0
  -30.0465   17.1436  -14.9516 C   0  0  0  0  0  0  0  0  0  0  0  0
  -29.3733   16.0918  -15.5867 C   0  0  0  0  0  0  0  0  0  0  0  0
  -30.0444   17.1572  -13.5674 N   0  0  0  0  0  0  0  0  0  0  0  0
  -30.6387   18.1252  -13.0775 O   0  0  0  0  0  0  0  0  0  0  0  0
  -31.2930   19.2308  -15.2134 O   0  0  0  0  0  0  0  0  0  0  0  0
  -31.2320   19.1376  -18.0189 C   0  0  0  0  0  0  0  0  0  0  0  0
  -32.5831   18.7965  -18.2966 O   0  0  0  0  0  0  0  0  0  0  0  0
  -31.0632   19.2718  -14.2631 H   0  0  0  0  0  0  0  0  0  0  0  0
  -32.8650   19.4121  -19.0008 H   0  0  0  0  0  0  0  0  0  0  0  0
  1  2  2  0  0  0  0
  1  6  1  0  0  0  0
  2  3  1  0  0  0  0
  3  4  2  0  0  0  0
  3 10  1  0  0  0  0
  4  5  1  0  0  0  0
  4  9  1  0  0  0  0
  5  6  2  0  0  0  0
  5  7  1  0  0  0  0
  7  8  2  0  0  0  0
  9 12  1  0  0  0  0
 10 11  1  0  0  0  0
 11 13  1  0  0  0  0
M  END
>  <CHROM.0>
-55.85545736,-60.58915147,-63.08193842,-42.18436211,-52.93052895,-56.88723772
-64.66487923,-174.45710596,-169.01257907

>  <CHROM.1>
90.81220841,-165.23705054,1.16945731,-168.14906376,-30.59308297,17.80647386
-16.01009703,-2.07606172,-0.88605424,1.43681688

>  <Name>
P59182810

>  <RI>
0

>  <Rbt.Current_Directory>
/home/fstefaniak/projects/zuza/docking/adenine/4TZX

>  <Rbt.Executable>
rbdock ($Id: //depot/dev/client3/rdock/2013.1/src/exe/rbdock.cxx#4 $)

>  <Rbt.Library>
libRbt.so (2013.1, Build901 2013/11/27)

>  <Rbt.Parameter_File>
/home/fstefaniak/progs/rDock//data/scripts/dock_solv.prm

>  <Rbt.Receptor>
4tzx.prm

>  <SCORE>
-50.9966

>  <SCORE.INTER>
-31.9635

>  <SCORE.INTER.CONST>
1

>  <SCORE.INTER.POLAR>
-4.13472

>  <SCORE.INTER.ROT>
2

>  <SCORE.INTER.SOLV>
11.6974

>  <SCORE.INTER.VDW>
-16.3591

>  <SCORE.INTER.norm>
-2.90577

>  <SCORE.INTRA>
1.89035

>  <SCORE.INTRA.DIHEDRAL>
-1.64077

>  <SCORE.INTRA.DIHEDRAL.0>
3.34367

>  <SCORE.INTRA.POLAR>
0.691028

>  <SCORE.INTRA.POLAR.0>
-0.691028

>  <SCORE.INTRA.REPUL>
0

>  <SCORE.INTRA.REPUL.0>
0

>  <SCORE.INTRA.SOLV>
-0.267166

>  <SCORE.INTRA.SOLV.lig_0>
-10.199

>  <SCORE.INTRA.VDW>
0.494827

>  <SCORE.INTRA.VDW.0>
-0.343007

>  <SCORE.INTRA.norm>
0.17185

>  <SCORE.RESTR>
0

>  <SCORE.RESTR.CAVITY>
0

>  <SCORE.RESTR.norm>
0

>  <SCORE.SYSTEM>
-20.9234

>  <SCORE.SYSTEM.CONST>
0

>  <SCORE.SYSTEM.DIHEDRAL>
4.70058

>  <SCORE.SYSTEM.POLAR>
-3.12058

>  <SCORE.SYSTEM.SOLV>
0.087067

>  <SCORE.SYSTEM.VDW>
-5.14292

>  <SCORE.SYSTEM.norm>
-1.90213

>  <SCORE.heavy>
11

>  <SCORE.norm>
-4.63605

$$$$
P59185642
 OpenBabel12072022113D
libRbt.so/2013.1/901 2013/11/27
 13 13  0  0  0  0  0  0  0  0999 V2000
  -29.0706   15.3513  -16.4299 C   0  0  0  0  0  0  0  0  0  0  0  0
  -28.1332   14.2142  -16.1993 C   0  0  1  0  0  0  0  0  0  0  0  0
  -27.2616   13.7208  -17.3191 C   0  0  0  0  0  0  0  0  0  0  0  0
  -26.6295   14.4148  -16.1304 C   0  0  1  0  0  0  0  0  0  0  0  0
  -26.0385   15.7832  -16.2541 C   0  0  0  0  0  0  0  0  0  0  0  0
  -26.3545   16.6976  -15.5048 O   0  0  0  0  0  0  0  0  0  0  0  0
  -25.0868   15.9252  -17.2218 N   0  0  0  0  0  0  0  0  0  0  0  0
  -25.9627   13.5559  -15.1718 O   0  0  0  0  0  0  0  0  0  0  0  0
  -24.7928   12.9770  -15.5600 C   0  0  0  0  0  0  0  0  0  0  0  0
  -24.3331   13.0022  -16.6956 O   0  0  0  0  0  0  0  0  0  0  0  0
  -24.1669   12.2434  -14.4139 C   0  0  0  0  0  0  0  0  0  0  0  0
  -25.3041   15.5850  -18.1560 H   0  0  0  0  0  0  0  0  0  0  0  0
  -24.1254   15.8585  -16.9181 H   0  0  0  0  0  0  0  0  0  0  0  0
  2  1  1  6  0  0  0
  2  3  1  0  0  0  0
  2  4  1  0  0  0  0
  3  4  1  0  0  0  0
  4  5  1  6  0  0  0
  4  8  1  0  0  0  0
  5  6  2  0  0  0  0
  5  7  1  0  0  0  0
  7 12  1  0  0  0  0
  7 13  1  0  0  0  0
  8  9  1  0  0  0  0
  9 10  2  0  0  0  0
  9 11  1  0  0  0  0
M  END
>  <CHROM.0>
-59.34625299,-65.34885926,-64.24630977,-42.39427715,-57.99260315,-60.96246276
-64.19922768,-58.03301391,-168.75722347

>  <CHROM.1>
56.84556108,137.12928582,49.84426284,-8.50108148,-26.13120381,14.36533113
-16.08408224,2.41983236,-0.09071488,-0.24522244

>  <Name>
P59185642

>  <RI>
0

>  <Rbt.Current_Directory>
/home/fstefaniak/projects/zuza/docking/adenine/4TZX

>  <Rbt.Executable>
rbdock ($Id: //depot/dev/client3/rdock/2013.1/src/exe/rbdock.cxx#4 $)

>  <Rbt.Library>
libRbt.so (2013.1, Build901 2013/11/27)

>  <Rbt.Parameter_File>
/home/fstefaniak/progs/rDock//data/scripts/dock_solv.prm

>  <Rbt.Receptor>
4tzx.prm

>  <SCORE>
-44.7072

>  <SCORE.INTER>
-25.8505

>  <SCORE.INTER.CONST>
1

>  <SCORE.INTER.POLAR>
-3.11696

>  <SCORE.INTER.ROT>
4

>  <SCORE.INTER.SOLV>
9.33261

>  <SCORE.INTER.VDW>
-16.2213

>  <SCORE.INTER.norm>
-2.35004

>  <SCORE.INTRA>
2.22988

>  <SCORE.INTRA.DIHEDRAL>
0.875439

>  <SCORE.INTRA.DIHEDRAL.0>
4.59859

>  <SCORE.INTRA.POLAR>
0.5561

>  <SCORE.INTRA.POLAR.0>
-0.5561

>  <SCORE.INTRA.REPUL>
0

>  <SCORE.INTRA.REPUL.0>
0

>  <SCORE.INTRA.SOLV>
-0.152582

>  <SCORE.INTRA.SOLV.lig_0>
-9.29848

>  <SCORE.INTRA.VDW>
-0.0222899

>  <SCORE.INTRA.VDW.0>
-1.69037

>  <SCORE.INTRA.norm>
0.202716

>  <SCORE.RESTR>
0

>  <SCORE.RESTR.CAVITY>
0

>  <SCORE.RESTR.norm>
0

>  <SCORE.SYSTEM>
-21.0867

>  <SCORE.SYSTEM.CONST>
0

>  <SCORE.SYSTEM.DIHEDRAL>
4.40679

>  <SCORE.SYSTEM.POLAR>
-3.0688

>  <SCORE.SYSTEM.SOLV>
0.1994

>  <SCORE.SYSTEM.VDW>
-5.36384

>  <SCORE.SYSTEM.norm>
-1.91697

>  <SCORE.heavy>
11

>  <SCORE.norm>
-4.06429

$$$$
P59185642
 OpenBabel12072022113D
libRbt.so/2013.1/901 2013/11/27
 13 13  0  0  0  0  0  0  0  0999 V2000
  -29.0485   15.3320  -16.3824 C   0  0  0  0  0  0  0  0  0  0  0  0
  -28.1050   14.1977  -16.1636 C   0  0  1  0  0  0  0  0  0  0  0  0
  -27.2324   13.7190  -17.2889 C   0  0  0  0  0  0  0  0  0  0  0  0
  -26.6022   14.4053  -16.0947 C   0  0  1  0  0  0  0  0  0  0  0  0
  -26.0184   15.7778  -16.2065 C   0  0  0  0  0  0  0  0  0  0  0  0
  -26.3462   16.6865  -15.4553 O   0  0  0  0  0  0  0  0  0  0  0  0
  -25.0594   15.9303  -17.1653 N   0  0  0  0  0  0  0  0  0  0  0  0
  -25.9298   13.5410  -15.1449 O   0  0  0  0  0  0  0  0  0  0  0  0
  -24.7654   12.9595  -15.5454 C   0  0  0  0  0  0  0  0  0  0  0  0
  -24.3003   13.0128  -16.6779 O   0  0  0  0  0  0  0  0  0  0  0  0
  -24.1535   12.1845  -14.4191 C   0  0  0  0  0  0  0  0  0  0  0  0
  -25.2859   15.6416  -18.1145 H   0  0  0  0  0  0  0  0  0  0  0  0
  -24.1019   15.8155  -16.8637 H   0  0  0  0  0  0  0  0  0  0  0  0
  2  1  1  6  0  0  0
  2  3  1  0  0  0  0
  2  4  1  0  0  0  0
  3  4  1  0  0  0  0
  4  5  1  6  0  0  0
  4  8  1  0  0  0  0
  5  6  2  0  0  0  0
  5  7  1  0  0  0  0
  7 12  1  0  0  0  0
  7 13  1  0  0  0  0
  8  9  1  0  0  0  0
  9 10  2  0  0  0  0
  9 11  1  0  0  0  0
M  END
>  <CHROM.0>
-58.18079730,-63.58320207,-64.36789473,52.21428437,-55.93965345,-55.73225701
-66.85648510,-173.30917608,-168.37598719

>  <CHROM.1>
56.23243532,136.39473649,53.21662404,-6.73518361,-26.10692041,14.35281966
-16.05166208,2.41629133,-0.08392730,-0.23736741

>  <Name>
P59185642

>  <RI>
0

>  <Rbt.Current_Directory>
/home/fstefaniak/projects/zuza/docking/adenine/4TZX

>  <Rbt.Executable>
rbdock ($Id: //depot/dev/client3/rdock/2013.1/src/exe/rbdock.cxx#4 $)

>  <Rbt.Library>
libRbt.so (2013.1, Build901 2013/11/27)

>  <Rbt.Parameter_File>
/home/fstefaniak/progs/rDock//data/scripts/dock_solv.prm

>  <Rbt.Receptor>
4tzx.prm

>  <SCORE>
-41.4513

>  <SCORE.INTER>
-25.6647

>  <SCORE.INTER.CONST>
1

>  <SCORE.INTER.POLAR>
-3.12659

>  <SCORE.INTER.ROT>
4

>  <SCORE.INTER.SOLV>
9.25152

>  <SCORE.INTER.VDW>
-16.0383

>  <SCORE.INTER.norm>
-2.33315

>  <SCORE.INTRA>
2.16751

>  <SCORE.INTRA.DIHEDRAL>
0.753149

>  <SCORE.INTRA.DIHEDRAL.0>
4.59859

>  <SCORE.INTRA.POLAR>
0.5561

>  <SCORE.INTRA.POLAR.0>
-0.5561

>  <SCORE.INTRA.REPUL>
0

>  <SCORE.INTRA.REPUL.0>
0

>  <SCORE.INTRA.SOLV>
-0.154056

>  <SCORE.INTRA.SOLV.lig_0>
-9.29848

>  <SCORE.INTRA.VDW>
-0.0227811

>  <SCORE.INTRA.VDW.0>
-1.69037

>  <SCORE.INTRA.norm>
0.197046

>  <SCORE.RESTR>
0

>  <SCORE.RESTR.CAVITY>
0

>  <SCORE.RESTR.norm>
0

>  <SCORE.SYSTEM>
-17.9541

>  <SCORE.SYSTEM.CONST>
0

>  <SCORE.SYSTEM.DIHEDRAL>
3.73698

>  <SCORE.SYSTEM.POLAR>
-2.50603

>  <SCORE.SYSTEM.SOLV>
0.00595164

>  <SCORE.SYSTEM.VDW>
-4.86365

>  <SCORE.SYSTEM.norm>
-1.63219

>  <SCORE.heavy>
11

>  <SCORE.norm>
-3.7683

$$$$
P59185642
 OpenBabel12072022113D
libRbt.so/2013.1/901 2013/11/27
 13 13  0  0  0  0  0  0  0  0999 V2000
  -27.8716   14.5836  -15.9771 C   0  0  0  0  0  0  0  0  0  0  0  0
  -28.9713   15.4031  -16.5636 C   0  0  1  0  0  0  0  0  0  0  0  0
  -30.2614   15.5755  -15.8133 C   0  0  0  0  0  0  0  0  0  0  0  0
  -29.3435   16.7650  -16.0044 C   0  0  1  0  0  0  0  0  0  0  0  0
  -28.5817   17.3502  -14.8578 C   0  0  0  0  0  0  0  0  0  0  0  0
  -27.4363   17.7627  -14.9818 O   0  0  0  0  0  0  0  0  0  0  0  0
  -29.2696   17.4411  -13.6828 N   0  0  0  0  0  0  0  0  0  0  0  0
  -29.7477   17.7263  -17.0113 O   0  0  0  0  0  0  0  0  0  0  0  0
  -30.7294   18.6079  -16.6745 C   0  0  0  0  0  0  0  0  0  0  0  0
  -31.2819   18.6691  -15.5825 O   0  0  0  0  0  0  0  0  0  0  0  0
  -31.0915   19.4616  -17.8508 C   0  0  0  0  0  0  0  0  0  0  0  0
  -29.7253   18.3248  -13.4657 H   0  0  0  0  0  0  0  0  0  0  0  0
  -28.9036   16.9075  -12.9067 H   0  0  0  0  0  0  0  0  0  0  0  0
  2  1  1  1  0  0  0
  2  3  1  0  0  0  0
  2  4  1  0  0  0  0
  3  4  1  0  0  0  0
  4  5  1  1  0  0  0
  4  8  1  0  0  0  0
  5  6  2  0  0  0  0
  5  7  1  0  0  0  0
  7 12  1  0  0  0  0
  7 13  1  0  0  0  0
  8  9  1  0  0  0  0
  9 10  2  0  0  0  0
  9 11  1  0  0  0  0
M  END
>  <CHROM.0>
-62.69250797,-63.60767564,-72.58411639,-43.32306172,-56.03608615,-59.29786034
-167.73950721,-60.00393198,-166.64422129

>  <CHROM.1>
71.27516910,144.60611069,-95.35149713,1.33368929,-29.50604508,17.24529835
-15.88366876,0.36288960,0.86926504,-2.45048473

>  <Name>
P59185642

>  <RI>
0

>  <Rbt.Current_Directory>
/home/fstefaniak/projects/zuza/docking/adenine/4TZX

>  <Rbt.Executable>
rbdock ($Id: //depot/dev/client3/rdock/2013.1/src/exe/rbdock.cxx#4 $)

>  <Rbt.Library>
libRbt.so (2013.1, Build901 2013/11/27)

>  <Rbt.Parameter_File>
/home/fstefaniak/progs/rDock//data/scripts/dock_solv.prm

>  <Rbt.Receptor>
4tzx.prm

>  <SCORE>
-41.3347

>  <SCORE.INTER>
-22.8429

>  <SCORE.INTER.CONST>
1

>  <SCORE.INTER.POLAR>
-3.588

>  <SCORE.INTER.ROT>
4

>  <SCORE.INTER.SOLV>
11.0829

>  <SCORE.INTER.VDW>
-13.2295

>  <SCORE.INTER.norm>
-2.07663

>  <SCORE.INTRA>
1.89763

>  <SCORE.INTRA.DIHEDRAL>
0.42574

>  <SCORE.INTRA.DIHEDRAL.0>
4.59859

>  <SCORE.INTRA.POLAR>
0.5561

>  <SCORE.INTRA.POLAR.0>
-0.5561

>  <SCORE.INTRA.REPUL>
0

>  <SCORE.INTRA.REPUL.0>
0

>  <SCORE.INTRA.SOLV>
-0.138816

>  <SCORE.INTRA.SOLV.lig_0>
-9.29848

>  <SCORE.INTRA.VDW>
-0.13657

>  <SCORE.INTRA.VDW.0>
-1.69037

>  <SCORE.INTRA.norm>
0.172512

>  <SCORE.RESTR>
0

>  <SCORE.RESTR.CAVITY>
0

>  <SCORE.RESTR.norm>
0

>  <SCORE.SYSTEM>
-20.3895

>  <SCORE.SYSTEM.CONST>
0

>  <SCORE.SYSTEM.DIHEDRAL>
5.68048

>  <SCORE.SYSTEM.POLAR>
-3.01999

>  <SCORE.SYSTEM.SOLV>
0.155379

>  <SCORE.SYSTEM.VDW>
-5.47166

>  <SCORE.SYSTEM.norm>
-1.85359

>  <SCORE.heavy>
11

>  <SCORE.norm>
-3.7577

$$$$
P59188741
 OpenBabel12072022113D
libRbt.so/2013.1/901 2013/11/27
 12 12  0  0  0  0  0  0  0  0999 V2000
  -27.6229   15.1336  -16.3406 C   0  0  0  0  0  0  0  0  0  0  0  0
  -26.2997   15.8851  -16.2555 C   0  0  2  0  0  0  0  0  0  0  0  0
  -25.2577   14.8925  -16.0696 N   0  3  0  0  0  0  0  0  0  0  0  0
  -24.3003   15.2163  -16.1858 H   0  0  0  0  0  0  0  0  0  0  0  0
  -25.3072   14.5780  -15.0682 H   0  0  0  0  0  0  0  0  0  0  0  0
  -25.5391   13.5702  -16.7532 C   0  0  2  0  0  0  0  0  0  0  0  0
  -27.2236   13.7376  -17.4015 S   0  0  0  0  0  0  0  0  0  0  0  0
  -25.5707   12.4298  -15.6788 C   0  0  0  0  0  0  0  0  0  0  0  0
  -26.1006   12.6723  -14.5724 O   0  0  0  0  0  0  0  0  0  0  0  0
  -25.1107   11.3527  -16.1944 O   0  5  0  0  0  0  0  0  0  0  0  0
  -26.2811   16.8306  -15.2165 O   0  0  0  0  0  0  0  0  0  0  0  0
  -25.3534   16.9764  -14.9609 H   0  0  0  0  0  0  0  0  0  0  0  0
  1  2  1  0  0  0  0
  1  7  1  0  0  0  0
  2  3  1  0  0  0  0
  2 11  1  1  0  0  0
  3  4  1  0  0  0  0
  3  5  1  0  0  0  0
  3  6  1  0  0  0  0
  6  7  1  0  0  0  0
  6  8  1  1  0  0  0
  8  9  2  0  0  0  0
  8 10  1  0  0  0  0
 11 12  1  0  0  0  0
M  CHG  2   3   1  10  -1
M  END
>  <CHROM.0>
-60.51055274,-68.31969729,-64.70122225,-42.86213369,-57.67084649,-65.28221402
-64.96279301,-54.76146543,-168.35321225

>  <CHROM.1>
155.27566945,39.00296074,-26.22226642,14.04408368,-16.17356435,1.90978194
-0.85511576,0.27696651

>  <Name>
P59188741

>  <RI>
0

>  <Rbt.Current_Directory>
/home/fstefaniak/projects/zuza/docking/adenine/4TZX

>  <Rbt.Executable>
rbdock ($Id: //depot/dev/client3/rdock/2013.1/src/exe/rbdock.cxx#4 $)

>  <Rbt.Library>
libRbt.so (2013.1, Build901 2013/11/27)

>  <Rbt.Parameter_File>
/home/fstefaniak/progs/rDock//data/scripts/dock_solv.prm

>  <Rbt.Receptor>
4tzx.prm

>  <SCORE>
-43.8258

>  <SCORE.INTER>
-23.2467

>  <SCORE.INTER.CONST>
1

>  <SCORE.INTER.POLAR>
-3.66752

>  <SCORE.INTER.ROT>
1

>  <SCORE.INTER.SOLV>
13.7211

>  <SCORE.INTER.VDW>
-12.1131

>  <SCORE.INTER.norm>
-2.58296

>  <SCORE.INTRA>
0.460726

>  <SCORE.INTRA.DIHEDRAL>
2.47233

>  <SCORE.INTRA.DIHEDRAL.0>
1.15482

>  <SCORE.INTRA.POLAR>
0

>  <SCORE.INTRA.POLAR.0>
0

>  <SCORE.INTRA.REPUL>
0

>  <SCORE.INTRA.REPUL.0>
0

>  <SCORE.INTRA.SOLV>
0.0237508

>  <SCORE.INTRA.SOLV.lig_0>
-48.7836

>  <SCORE.INTRA.VDW>
-0.787317

>  <SCORE.INTRA.VDW.0>
-0.120055

>  <SCORE.INTRA.norm>
0.0511917

>  <SCORE.RESTR>
0

>  <SCORE.RESTR.CAVITY>
0

>  <SCORE.RESTR.norm>
0

>  <SCORE.SYSTEM>
-21.0399

>  <SCORE.SYSTEM.CONST>
0

>  <SCORE.SYSTEM.DIHEDRAL>
4.85417

>  <SCORE.SYSTEM.POLAR>
-3.06686

>  <SCORE.SYSTEM.SOLV>
0.18559

>  <SCORE.SYSTEM.VDW>
-5.48364

>  <SCORE.SYSTEM.norm>
-2.33776

>  <SCORE.heavy>
9

>  <SCORE.norm>
-4.86954

$$$$
P59188741
 OpenBabel12072022113D
libRbt.so/2013.1/901 2013/11/27
 12 12  0  0  0  0  0  0  0  0999 V2000
  -27.6233   15.0560  -16.3214 C   0  0  0  0  0  0  0  0  0  0  0  0
  -26.3060   15.8173  -16.2316 C   0  0  2  0  0  0  0  0  0  0  0  0
  -25.2548   14.8310  -16.0654 N   0  3  0  0  0  0  0  0  0  0  0  0
  -24.3007   15.1646  -16.1814 H   0  0  0  0  0  0  0  0  0  0  0  0
  -25.2967   14.5014  -15.0685 H   0  0  0  0  0  0  0  0  0  0  0  0
  -25.5284   13.5166  -16.7672 C   0  0  2  0  0  0  0  0  0  0  0  0
  -27.2175   13.6793  -17.4047 S   0  0  0  0  0  0  0  0  0  0  0  0
  -25.5451   12.3603  -15.7096 C   0  0  0  0  0  0  0  0  0  0  0  0
  -24.9047   11.3164  -15.9623 O   0  0  0  0  0  0  0  0  0  0  0  0
  -26.1671   12.7557  -14.6633 O   0  5  0  0  0  0  0  0  0  0  0  0
  -26.2903   16.7475  -15.1788 O   0  0  0  0  0  0  0  0  0  0  0  0
  -25.3613   16.9181  -14.9438 H   0  0  0  0  0  0  0  0  0  0  0  0
  1  2  1  0  0  0  0
  1  7  1  0  0  0  0
  2  3  1  0  0  0  0
  2 11  1  1  0  0  0
  3  4  1  0  0  0  0
  3  5  1  0  0  0  0
  3  6  1  0  0  0  0
  6  7  1  0  0  0  0
  6  8  1  1  0  0  0
  8  9  2  0  0  0  0
  8 10  1  0  0  0  0
 11 12  1  0  0  0  0
M  CHG  2   3   1  10  -1
M  END
>  <CHROM.0>
-59.43254708,-65.54293835,-66.51267102,-43.60025232,-59.06457757,-57.65028970
-66.24169374,-61.04974577,-169.47536038

>  <CHROM.1>
156.98476594,-133.21106358,-26.20427527,13.99716044,-16.15434516,1.95425361
-0.81719301,0.28884823

>  <Name>
P59188741

>  <RI>
0

>  <Rbt.Current_Directory>
/home/fstefaniak/projects/zuza/docking/adenine/4TZX

>  <Rbt.Executable>
rbdock ($Id: //depot/dev/client3/rdock/2013.1/src/exe/rbdock.cxx#4 $)

>  <Rbt.Library>
libRbt.so (2013.1, Build901 2013/11/27)

>  <Rbt.Parameter_File>
/home/fstefaniak/progs/rDock//data/scripts/dock_solv.prm

>  <Rbt.Receptor>
4tzx.prm

>  <SCORE>
-43.3679

>  <SCORE.INTER>
-23.0561

>  <SCORE.INTER.CONST>
1

>  <SCORE.INTER.POLAR>
-3.64394

>  <SCORE.INTER.ROT>
1

>  <SCORE.INTER.SOLV>
13.3879

>  <SCORE.INTER.VDW>
-11.9535

>  <SCORE.INTER.norm>
-2.56179

>  <SCORE.INTRA>
0.801807

>  <SCORE.INTRA.DIHEDRAL>
2.21722

>  <SCORE.INTRA.DIHEDRAL.0>
1.15482

>  <SCORE.INTRA.POLAR>
0

>  <SCORE.INTRA.POLAR.0>
0

>  <SCORE.INTRA.REPUL>
0

>  <SCORE.INTRA.REPUL.0>
0

>  <SCORE.INTRA.SOLV>
0.527733

>  <SCORE.INTRA.SOLV.lig_0>
-48.7836

>  <SCORE.INTRA.VDW>
-0.570672

>  <SCORE.INTRA.VDW.0>
-0.120055

>  <SCORE.INTRA.norm>
0.0890897

>  <SCORE.RESTR>
0

>  <SCORE.RESTR.CAVITY>
0

>  <SCORE.RESTR.norm>
0

>  <SCORE.SYSTEM>
-21.1137

>  <SCORE.SYSTEM.CONST>
0

>  <SCORE.SYSTEM.DIHEDRAL>
4.37748

>  <SCORE.SYSTEM.POLAR>
-3.03553

>  <SCORE.SYSTEM.SOLV>
0.188625

>  <SCORE.SYSTEM.VDW>
-5.47939

>  <SCORE.SYSTEM.norm>
-2.34596

>  <SCORE.heavy>
9

>  <SCORE.norm>
-4.81866

$$$$
P59188741
 OpenBabel12072022113D
libRbt.so/2013.1/901 2013/11/27
 12 12  0  0  0  0  0  0  0  0999 V2000
  -27.6297   15.1057  -16.3128 C   0  0  0  0  0  0  0  0  0  0  0  0
  -26.2865   15.8240  -16.2598 C   0  0  2  0  0  0  0  0  0  0  0  0
  -25.2654   14.8057  -16.0990 N   0  3  0  0  0  0  0  0  0  0  0  0
  -24.3033   15.1057  -16.2384 H   0  0  0  0  0  0  0  0  0  0  0  0
  -25.2985   14.4920  -15.0967 H   0  0  0  0  0  0  0  0  0  0  0  0
  -25.5960   13.4912  -16.7756 C   0  0  2  0  0  0  0  0  0  0  0  0
  -27.2910   13.7008  -17.3829 S   0  0  0  0  0  0  0  0  0  0  0  0
  -25.6300   12.3514  -15.7006 C   0  0  0  0  0  0  0  0  0  0  0  0
  -25.1197   11.2473  -15.9909 O   0  0  0  0  0  0  0  0  0  0  0  0
  -26.1137   12.8153  -14.6104 O   0  5  0  0  0  0  0  0  0  0  0  0
  -26.2193   16.7682  -15.2216 O   0  0  0  0  0  0  0  0  0  0  0  0
  -25.2810   16.9062  -15.0026 H   0  0  0  0  0  0  0  0  0  0  0  0
  1  2  1  0  0  0  0
  1  7  1  0  0  0  0
  2  3  1  0  0  0  0
  2 11  1  1  0  0  0
  3  4  1  0  0  0  0
  3  5  1  0  0  0  0
  3  6  1  0  0  0  0
  6  7  1  0  0  0  0
  6  8  1  1  0  0  0
  8  9  2  0  0  0  0
  8 10  1  0  0  0  0
 11 12  1  0  0  0  0
M  CHG  2   3   1  10  -1
M  END
>  <CHROM.0>
-59.76205835,-62.53580615,-67.66782650,-44.04934300,-59.25343353,-63.31183839
-66.62584340,-61.26446988,-169.16051230

>  <CHROM.1>
156.57257078,-138.69911298,-26.24192491,14.00238526,-16.15744393,1.89343152
-0.82353850,0.23984844

>  <Name>
P59188741

>  <RI>
0

>  <Rbt.Current_Directory>
/home/fstefaniak/projects/zuza/docking/adenine/4TZX

>  <Rbt.Executable>
rbdock ($Id: //depot/dev/client3/rdock/2013.1/src/exe/rbdock.cxx#4 $)

>  <Rbt.Library>
libRbt.so (2013.1, Build901 2013/11/27)

>  <Rbt.Parameter_File>
/home/fstefaniak/progs/rDock//data/scripts/dock_solv.prm

>  <Rbt.Receptor>
4tzx.prm

>  <SCORE>
-43.2344

>  <SCORE.INTER>
-22.9127

>  <SCORE.INTER.CONST>
1

>  <SCORE.INTER.POLAR>
-3.58068

>  <SCORE.INTER.ROT>
1

>  <SCORE.INTER.SOLV>
13.3511

>  <SCORE.INTER.VDW>
-12.0566

>  <SCORE.INTER.norm>
-2.54586

>  <SCORE.INTRA>
0.867636

>  <SCORE.INTRA.DIHEDRAL>
2.28172

>  <SCORE.INTRA.DIHEDRAL.0>
1.15482

>  <SCORE.INTRA.POLAR>
0

>  <SCORE.INTRA.POLAR.0>
0

>  <SCORE.INTRA.REPUL>
0

>  <SCORE.INTRA.REPUL.0>
0

>  <SCORE.INTRA.SOLV>
0.563603

>  <SCORE.INTRA.SOLV.lig_0>
-48.7836

>  <SCORE.INTRA.VDW>
-0.555027

>  <SCORE.INTRA.VDW.0>
-0.120055

>  <SCORE.INTRA.norm>
0.096404

>  <SCORE.RESTR>
0

>  <SCORE.RESTR.CAVITY>
0

>  <SCORE.RESTR.norm>
0

>  <SCORE.SYSTEM>
-21.1893

>  <SCORE.SYSTEM.CONST>
0

>  <SCORE.SYSTEM.DIHEDRAL>
4.34783

>  <SCORE.SYSTEM.POLAR>
-3.01991

>  <SCORE.SYSTEM.SOLV>
0.174692

>  <SCORE.SYSTEM.VDW>
-5.56734

>  <SCORE.SYSTEM.norm>
-2.35437

>  <SCORE.heavy>
9

>  <SCORE.norm>
-4.80382

$$$$
P59189263
 OpenBabel12072022113D
libRbt.so/2013.1/901 2013/11/27
 14 14  0  0  0  0  0  0  0  0999 V2000
  -29.2317   16.9190  -16.9675 C   0  0  0  0  0  0  0  0  0  0  0  0
  -29.7893   18.3150  -16.6941 C   0  0  0  0  0  0  0  0  0  0  0  0
  -31.1583   18.2552  -16.0116 C   0  0  2  0  0  0  0  0  0  0  0  0
  -31.1701   17.2868  -14.8119 C   0  0  1  0  0  0  0  0  0  0  0  0
  -30.5960   15.9412  -15.1268 N   0  0  0  0  0  0  0  0  0  0  0  0
  -29.2561   16.0505  -15.7133 C   0  0  0  0  0  0  0  0  0  0  0  0
  -30.4777   17.8886  -13.5736 C   0  0  0  0  0  0  0  0  0  0  0  0
  -29.2656   17.9443  -13.4029 O   0  0  0  0  0  0  0  0  0  0  0  0
  -31.3449   18.4256  -12.6587 N   0  0  0  0  0  0  0  0  0  0  0  0
  -32.1490   17.8497  -16.9702 O   0  0  0  0  0  0  0  0  0  0  0  0
  -31.2177   15.4868  -15.7957 H   0  0  0  0  0  0  0  0  0  0  0  0
  -32.2152   18.8022  -13.0209 H   0  0  0  0  0  0  0  0  0  0  0  0
  -31.3301   18.0422  -11.7243 H   0  0  0  0  0  0  0  0  0  0  0  0
  -32.9678   17.6416  -16.4928 H   0  0  0  0  0  0  0  0  0  0  0  0
  1  2  1  0  0  0  0
  1  6  1  0  0  0  0
  2  3  1  0  0  0  0
  3 10  1  6  0  0  0
  3  4  1  0  0  0  0
  4  5  1  0  0  0  0
  4  7  1  1  0  0  0
  5  6  1  0  0  0  0
  5 11  1  0  0  0  0
  7  8  2  0  0  0  0
  7  9  1  0  0  0  0
  9 12  1  0  0  0  0
  9 13  1  0  0  0  0
 10 14  1  0  0  0  0
M  END
>  <CHROM.0>
-56.19589713,-59.70625811,-66.35003536,-42.05541587,-178.47981232,-62.07223234
-61.60801169,-58.86017282,-168.43251749

>  <CHROM.1>
168.63640846,-79.05835700,-29.68950792,-30.48202010,17.48948168,-15.18670821
-1.50390030,-0.51747227,1.39611403

>  <Name>
P59189263

>  <RI>
0

>  <Rbt.Current_Directory>
/home/fstefaniak/projects/zuza/docking/adenine/4TZX

>  <Rbt.Executable>
rbdock ($Id: //depot/dev/client3/rdock/2013.1/src/exe/rbdock.cxx#4 $)

>  <Rbt.Library>
libRbt.so (2013.1, Build901 2013/11/27)

>  <Rbt.Parameter_File>
/home/fstefaniak/progs/rDock//data/scripts/dock_solv.prm

>  <Rbt.Receptor>
4tzx.prm

>  <SCORE>
-52.3513

>  <SCORE.INTER>
-31.8304

>  <SCORE.INTER.CONST>
1

>  <SCORE.INTER.POLAR>
-5.1748

>  <SCORE.INTER.ROT>
2

>  <SCORE.INTER.SOLV>
14.5434

>  <SCORE.INTER.VDW>
-13.7521

>  <SCORE.INTER.norm>
-3.18304

>  <SCORE.INTRA>
0.611008

>  <SCORE.INTRA.DIHEDRAL>
1.59715

>  <SCORE.INTRA.DIHEDRAL.0>
1.54121

>  <SCORE.INTRA.POLAR>
0.073828

>  <SCORE.INTRA.POLAR.0>
-0.073828

>  <SCORE.INTRA.REPUL>
0

>  <SCORE.INTRA.REPUL.0>
0

>  <SCORE.INTRA.SOLV>
-0.306599

>  <SCORE.INTRA.SOLV.lig_0>
-15.9899

>  <SCORE.INTRA.VDW>
-0.285282

>  <SCORE.INTRA.VDW.0>
-0.353284

>  <SCORE.INTRA.norm>
0.0611008

>  <SCORE.RESTR>
0

>  <SCORE.RESTR.CAVITY>
0

>  <SCORE.RESTR.norm>
0

>  <SCORE.SYSTEM>
-21.1319

>  <SCORE.SYSTEM.CONST>
0

>  <SCORE.SYSTEM.DIHEDRAL>
4.44354

>  <SCORE.SYSTEM.POLAR>
-3.09092

>  <SCORE.SYSTEM.SOLV>
0.0236106

>  <SCORE.SYSTEM.VDW>
-5.27391

>  <SCORE.SYSTEM.norm>
-2.11319

>  <SCORE.heavy>
10

>  <SCORE.norm>
-5.23513

$$$$
P59189263
 OpenBabel12072022113D
libRbt.so/2013.1/901 2013/11/27
 14 14  0  0  0  0  0  0  0  0999 V2000
  -29.2521   16.9210  -16.9855 C   0  0  0  0  0  0  0  0  0  0  0  0
  -29.7951   18.3213  -16.7045 C   0  0  0  0  0  0  0  0  0  0  0  0
  -31.1599   18.2720  -16.0129 C   0  0  2  0  0  0  0  0  0  0  0  0
  -31.1725   17.3003  -14.8159 C   0  0  1  0  0  0  0  0  0  0  0  0
  -30.6129   15.9504  -15.1383 N   0  0  0  0  0  0  0  0  0  0  0  0
  -29.2760   16.0491  -15.7336 C   0  0  0  0  0  0  0  0  0  0  0  0
  -30.4663   17.8921  -13.5806 C   0  0  0  0  0  0  0  0  0  0  0  0
  -29.2527   17.9376  -13.4185 O   0  0  0  0  0  0  0  0  0  0  0  0
  -31.3225   18.4329  -12.6575 N   0  0  0  0  0  0  0  0  0  0  0  0
  -32.1607   17.8782  -16.9659 O   0  0  0  0  0  0  0  0  0  0  0  0
  -31.2432   15.5036  -15.8043 H   0  0  0  0  0  0  0  0  0  0  0  0
  -32.1880   18.8264  -13.0131 H   0  0  0  0  0  0  0  0  0  0  0  0
  -31.3109   18.0396  -11.7272 H   0  0  0  0  0  0  0  0  0  0  0  0
  -32.9758   17.6686  -16.4828 H   0  0  0  0  0  0  0  0  0  0  0  0
  1  2  1  0  0  0  0
  1  6  1  0  0  0  0
  2  3  1  0  0  0  0
  3 10  1  6  0  0  0
  3  4  1  0  0  0  0
  4  5  1  0  0  0  0
  4  7  1  1  0  0  0
  5  6  1  0  0  0  0
  5 11  1  0  0  0  0
  7  8  2  0  0  0  0
  7  9  1  0  0  0  0
  9 12  1  0  0  0  0
  9 13  1  0  0  0  0
 10 14  1  0  0  0  0
M  END
>  <CHROM.0>
-56.96034038,-60.60673687,-66.45515354,-42.63499207,-57.15460289,-56.25215872
-63.79045870,-64.52301218,-168.87922224

>  <CHROM.1>
168.13735413,-78.97832154,-30.31507694,-30.48516782,17.49764764,-15.19470194
-1.51325191,-0.52496123,1.39436862

>  <Name>
P59189263

>  <RI>
0

>  <Rbt.Current_Directory>
/home/fstefaniak/projects/zuza/docking/adenine/4TZX

>  <Rbt.Executable>
rbdock ($Id: //depot/dev/client3/rdock/2013.1/src/exe/rbdock.cxx#4 $)

>  <Rbt.Library>
libRbt.so (2013.1, Build901 2013/11/27)

>  <Rbt.Parameter_File>
/home/fstefaniak/progs/rDock//data/scripts/dock_solv.prm

>  <Rbt.Receptor>
4tzx.prm

>  <SCORE>
-52.1245

>  <SCORE.INTER>
-31.7466

>  <SCORE.INTER.CONST>
1

>  <SCORE.INTER.POLAR>
-5.14796

>  <SCORE.INTER.ROT>
2

>  <SCORE.INTER.SOLV>
14.552

>  <SCORE.INTER.VDW>
-13.7885

>  <SCORE.INTER.norm>
-3.17466

>  <SCORE.INTRA>
0.641222

>  <SCORE.INTRA.DIHEDRAL>
1.65278

>  <SCORE.INTRA.DIHEDRAL.0>
1.54121

>  <SCORE.INTRA.POLAR>
0.073828

>  <SCORE.INTRA.POLAR.0>
-0.073828

>  <SCORE.INTRA.REPUL>
0

>  <SCORE.INTRA.REPUL.0>
0

>  <SCORE.INTRA.SOLV>
-0.306577

>  <SCORE.INTRA.SOLV.lig_0>
-15.9899

>  <SCORE.INTRA.VDW>
-0.282894

>  <SCORE.INTRA.VDW.0>
-0.353284

>  <SCORE.INTRA.norm>
0.0641222

>  <SCORE.RESTR>
0

>  <SCORE.RESTR.CAVITY>
0

>  <SCORE.RESTR.norm>
0

>  <SCORE.SYSTEM>
-21.0191

>  <SCORE.SYSTEM.CONST>
0

>  <SCORE.SYSTEM.DIHEDRAL>
4.50943

>  <SCORE.SYSTEM.POLAR>
-3.09198

>  <SCORE.SYSTEM.SOLV>
0.203388

>  <SCORE.SYSTEM.VDW>
-5.27706

>  <SCORE.SYSTEM.norm>
-2.10191

>  <SCORE.heavy>
10

>  <SCORE.norm>
-5.21245

$$$$
P59189263
 OpenBabel12072022113D
libRbt.so/2013.1/901 2013/11/27
 14 14  0  0  0  0  0  0  0  0999 V2000
  -29.2193   16.9306  -16.9667 C   0  0  0  0  0  0  0  0  0  0  0  0
  -29.7751   18.3278  -16.6960 C   0  0  0  0  0  0  0  0  0  0  0  0
  -31.1439   18.2709  -16.0127 C   0  0  2  0  0  0  0  0  0  0  0  0
  -31.1562   17.3051  -14.8109 C   0  0  1  0  0  0  0  0  0  0  0  0
  -30.5838   15.9582  -15.1232 N   0  0  0  0  0  0  0  0  0  0  0  0
  -29.2439   16.0647  -15.7106 C   0  0  0  0  0  0  0  0  0  0  0  0
  -30.4625   17.9087  -13.5742 C   0  0  0  0  0  0  0  0  0  0  0  0
  -29.2503   17.9674  -13.4062 O   0  0  0  0  0  0  0  0  0  0  0  0
  -31.3290   18.4440  -12.6576 N   0  0  0  0  0  0  0  0  0  0  0  0
  -32.1355   17.8644  -16.9700 O   0  0  0  0  0  0  0  0  0  0  0  0
  -31.2062   15.5030  -15.7909 H   0  0  0  0  0  0  0  0  0  0  0  0
  -32.1999   18.8205  -13.0183 H   0  0  0  0  0  0  0  0  0  0  0  0
  -31.3130   18.0592  -11.7238 H   0  0  0  0  0  0  0  0  0  0  0  0
  -32.9567   17.6661  -16.4925 H   0  0  0  0  0  0  0  0  0  0  0  0
  1  2  1  0  0  0  0
  1  6  1  0  0  0  0
  2  3  1  0  0  0  0
  3 10  1  6  0  0  0
  3  4  1  0  0  0  0
  4  5  1  0  0  0  0
  4  7  1  1  0  0  0
  5  6  1  0  0  0  0
  5 11  1  0  0  0  0
  7  8  2  0  0  0  0
  7  9  1  0  0  0  0
  9 12  1  0  0  0  0
  9 13  1  0  0  0  0
 10 14  1  0  0  0  0
M  END
>  <CHROM.0>
-61.42219185,-65.83271917,-70.53181736,-44.17318754,-59.88684233,-63.76584681
-171.11489939,-63.48306148,-169.03404814

>  <CHROM.1>
169.14788706,-78.81515270,-29.83758794,-30.46811825,17.50614600,-15.18642860
-1.50451510,-0.51746425,1.39409166

>  <Name>
P59189263

>  <RI>
0

>  <Rbt.Current_Directory>
/home/fstefaniak/projects/zuza/docking/adenine/4TZX

>  <Rbt.Executable>
rbdock ($Id: //depot/dev/client3/rdock/2013.1/src/exe/rbdock.cxx#4 $)

>  <Rbt.Library>
libRbt.so (2013.1, Build901 2013/11/27)

>  <Rbt.Parameter_File>
/home/fstefaniak/progs/rDock//data/scripts/dock_solv.prm

>  <Rbt.Receptor>
4tzx.prm

>  <SCORE>
-51.6505

>  <SCORE.INTER>
-31.676

>  <SCORE.INTER.CONST>
1

>  <SCORE.INTER.POLAR>
-5.12443

>  <SCORE.INTER.ROT>
2

>  <SCORE.INTER.SOLV>
14.509

>  <SCORE.INTER.VDW>
-13.8055

>  <SCORE.INTER.norm>
-3.1676

>  <SCORE.INTRA>
0.580914

>  <SCORE.INTRA.DIHEDRAL>
1.55344

>  <SCORE.INTRA.DIHEDRAL.0>
1.54121

>  <SCORE.INTRA.POLAR>
0.073828

>  <SCORE.INTRA.POLAR.0>
-0.073828

>  <SCORE.INTRA.REPUL>
0

>  <SCORE.INTRA.REPUL.0>
0

>  <SCORE.INTRA.SOLV>
-0.307108

>  <SCORE.INTRA.SOLV.lig_0>
-15.9899

>  <SCORE.INTRA.VDW>
-0.293268

>  <SCORE.INTRA.VDW.0>
-0.353284

>  <SCORE.INTRA.norm>
0.0580914

>  <SCORE.RESTR>
0

>  <SCORE.RESTR.CAVITY>
0

>  <SCORE.RESTR.norm>
0

>  <SCORE.SYSTEM>
-20.5554

>  <SCORE.SYSTEM.CONST>
0

>  <SCORE.SYSTEM.DIHEDRAL>
4.92801

>  <SCORE.SYSTEM.POLAR>
-3.00287

>  <SCORE.SYSTEM.SOLV>
0.139004

>  <SCORE.SYSTEM.VDW>
-5.38305

>  <SCORE.SYSTEM.norm>
-2.05554

>  <SCORE.heavy>
10

>  <SCORE.norm>
-5.16505

$$$$
P59189804
 OpenBabel12072022113D
libRbt.so/2013.1/901 2013/11/27
 13 13  0  0  0  0  0  0  0  0999 V2000
  -28.9881   17.3018  -14.8202 C   0  0  0  0  0  0  0  0  0  0  0  0
  -28.6344   16.4986  -16.0857 C   0  0  0  0  0  0  0  0  0  0  0  0
  -30.0752   16.8050  -16.5969 C   0  0  1  0  0  0  0  0  0  0  0  0
  -30.4648   16.9260  -15.0842 C   0  0  2  0  0  0  0  0  0  0  0  0
  -31.5961   17.8895  -14.7236 C   0  0  0  0  0  0  0  0  0  0  0  0
  -32.2604   18.4894  -15.5738 O   0  0  0  0  0  0  0  0  0  0  0  0
  -31.8432   18.0749  -13.3963 N   0  0  0  0  0  0  0  0  0  0  0  0
  -30.2112   18.0326  -17.5482 C   0  0  0  0  0  0  0  0  0  0  0  0
  -30.4985   19.1715  -17.1879 O   0  0  0  0  0  0  0  0  0  0  0  0
  -29.9473   17.7894  -18.8588 O   0  0  0  0  0  0  0  0  0  0  0  0
  -31.3159   17.6218  -12.6624 H   0  0  0  0  0  0  0  0  0  0  0  0
  -32.5744   18.7236  -13.1316 H   0  0  0  0  0  0  0  0  0  0  0  0
  -29.9603   18.5863  -19.4420 H   0  0  0  0  0  0  0  0  0  0  0  0
  1  2  1  0  0  0  0
  1  4  1  0  0  0  0
  2  3  1  0  0  0  0
  3  8  1  6  0  0  0
  3  4  1  0  0  0  0
  4  5  1  6  0  0  0
  5  6  2  0  0  0  0
  5  7  1  0  0  0  0
  7 11  1  0  0  0  0
  7 12  1  0  0  0  0
  8  9  2  0  0  0  0
  8 10  1  0  0  0  0
 10 13  1  0  0  0  0
M  END
>  <CHROM.0>
-60.60423527,-171.72188646,-66.11641969,-42.87195565,-57.14070792,-61.76944955
-66.22870704,-175.97511054,-169.07996243

>  <CHROM.1>
-94.14315202,109.03081604,-175.02134368,-30.47775430,17.74755716,-16.01704061
-2.08369854,0.58297184,-1.30309785

>  <Name>
P59189804

>  <RI>
0

>  <Rbt.Current_Directory>
/home/fstefaniak/projects/zuza/docking/adenine/4TZX

>  <Rbt.Executable>
rbdock ($Id: //depot/dev/client3/rdock/2013.1/src/exe/rbdock.cxx#4 $)

>  <Rbt.Library>
libRbt.so (2013.1, Build901 2013/11/27)

>  <Rbt.Parameter_File>
/home/fstefaniak/progs/rDock//data/scripts/dock_solv.prm

>  <Rbt.Receptor>
4tzx.prm

>  <SCORE>
-52.5129

>  <SCORE.INTER>
-31.7612

>  <SCORE.INTER.CONST>
1

>  <SCORE.INTER.POLAR>
-4.04118

>  <SCORE.INTER.ROT>
2

>  <SCORE.INTER.SOLV>
12.5936

>  <SCORE.INTER.VDW>
-16.8348

>  <SCORE.INTER.norm>
-3.17612

>  <SCORE.INTRA>
0.224665

>  <SCORE.INTRA.DIHEDRAL>
-1.76182

>  <SCORE.INTRA.DIHEDRAL.0>
3.79962

>  <SCORE.INTRA.POLAR>
0.357849

>  <SCORE.INTRA.POLAR.0>
-0.357849

>  <SCORE.INTRA.REPUL>
0

>  <SCORE.INTRA.REPUL.0>
0

>  <SCORE.INTRA.SOLV>
-0.0223115

>  <SCORE.INTRA.SOLV.lig_0>
-13.5001

>  <SCORE.INTRA.VDW>
-0.0999551

>  <SCORE.INTRA.VDW.0>
-0.644389

>  <SCORE.INTRA.norm>
0.0224665

>  <SCORE.RESTR>
0

>  <SCORE.RESTR.CAVITY>
0

>  <SCORE.RESTR.norm>
0

>  <SCORE.SYSTEM>
-20.9763

>  <SCORE.SYSTEM.CONST>
0

>  <SCORE.SYSTEM.DIHEDRAL>
4.76249

>  <SCORE.SYSTEM.POLAR>
-3.05147

>  <SCORE.SYSTEM.SOLV>
0.0222794

>  <SCORE.SYSTEM.VDW>
-5.40755

>  <SCORE.SYSTEM.norm>
-2.09763

>  <SCORE.heavy>
10

>  <SCORE.norm>
-5.25129

$$$$
P59189804
 OpenBabel12072022113D
libRbt.so/2013.1/901 2013/11/27
 13 13  0  0  0  0  0  0  0  0999 V2000
  -29.0149   17.2215  -14.8470 C   0  0  0  0  0  0  0  0  0  0  0  0
  -28.6879   16.4166  -16.1185 C   0  0  0  0  0  0  0  0  0  0  0  0
  -30.1215   16.7657  -16.6225 C   0  0  1  0  0  0  0  0  0  0  0  0
  -30.5023   16.8882  -15.1077 C   0  0  2  0  0  0  0  0  0  0  0  0
  -31.6054   17.8802  -14.7372 C   0  0  0  0  0  0  0  0  0  0  0  0
  -32.2621   18.4964  -15.5816 O   0  0  0  0  0  0  0  0  0  0  0  0
  -31.8351   18.0725  -13.4078 N   0  0  0  0  0  0  0  0  0  0  0  0
  -30.2270   18.0023  -17.5660 C   0  0  0  0  0  0  0  0  0  0  0  0
  -30.4961   19.1438  -17.1998 O   0  0  0  0  0  0  0  0  0  0  0  0
  -29.9570   17.7635  -18.8762 O   0  0  0  0  0  0  0  0  0  0  0  0
  -31.3126   17.6064  -12.6785 H   0  0  0  0  0  0  0  0  0  0  0  0
  -32.5471   18.7397  -13.1366 H   0  0  0  0  0  0  0  0  0  0  0  0
  -29.9869   18.5593  -19.4602 H   0  0  0  0  0  0  0  0  0  0  0  0
  1  2  1  0  0  0  0
  1  4  1  0  0  0  0
  2  3  1  0  0  0  0
  3  8  1  6  0  0  0
  3  4  1  0  0  0  0
  4  5  1  6  0  0  0
  5  6  2  0  0  0  0
  5  7  1  0  0  0  0
  7 11  1  0  0  0  0
  7 12  1  0  0  0  0
  8  9  2  0  0  0  0
  8 10  1  0  0  0  0
 10 13  1  0  0  0  0
M  END
>  <CHROM.0>
-61.46160394,-168.41197763,-66.87135407,-42.28803161,-58.49559337,-55.79423364
-63.15680110,-56.89317085,-168.51678568

>  <CHROM.1>
-94.99097333,109.55001407,-177.41617162,-30.49553897,17.71568152,-16.03551083
-2.08995946,0.60997260,-1.29493172

>  <Name>
P59189804

>  <RI>
0

>  <Rbt.Current_Directory>
/home/fstefaniak/projects/zuza/docking/adenine/4TZX

>  <Rbt.Executable>
rbdock ($Id: //depot/dev/client3/rdock/2013.1/src/exe/rbdock.cxx#4 $)

>  <Rbt.Library>
libRbt.so (2013.1, Build901 2013/11/27)

>  <Rbt.Parameter_File>
/home/fstefaniak/progs/rDock//data/scripts/dock_solv.prm

>  <Rbt.Receptor>
4tzx.prm

>  <SCORE>
-52.3471

>  <SCORE.INTER>
-31.8037

>  <SCORE.INTER.CONST>
1

>  <SCORE.INTER.POLAR>
-4.01802

>  <SCORE.INTER.ROT>
2

>  <SCORE.INTER.SOLV>
12.6101

>  <SCORE.INTER.VDW>
-16.9458

>  <SCORE.INTER.norm>
-3.18037

>  <SCORE.INTRA>
0.167546

>  <SCORE.INTRA.DIHEDRAL>
-1.9121

>  <SCORE.INTRA.DIHEDRAL.0>
3.79962

>  <SCORE.INTRA.POLAR>
0.357849

>  <SCORE.INTRA.POLAR.0>
-0.357849

>  <SCORE.INTRA.REPUL>
0

>  <SCORE.INTRA.REPUL.0>
0

>  <SCORE.INTRA.SOLV>
-0.0196638

>  <SCORE.INTRA.SOLV.lig_0>
-13.5001

>  <SCORE.INTRA.VDW>
-0.0832562

>  <SCORE.INTRA.VDW.0>
-0.644389

>  <SCORE.INTRA.norm>
0.0167546

>  <SCORE.RESTR>
0

>  <SCORE.RESTR.CAVITY>
0

>  <SCORE.RESTR.norm>
0

>  <SCORE.SYSTEM>
-20.711

>  <SCORE.SYSTEM.CONST>
0

>  <SCORE.SYSTEM.DIHEDRAL>
5.13613

>  <SCORE.SYSTEM.POLAR>
-3.07329

>  <SCORE.SYSTEM.SOLV>
0.170369

>  <SCORE.SYSTEM.VDW>
-5.3319

>  <SCORE.SYSTEM.norm>
-2.0711

>  <SCORE.heavy>
10

>  <SCORE.norm>
-5.23471

$$$$
P59189804
 OpenBabel12072022113D
libRbt.so/2013.1/901 2013/11/27
 13 13  0  0  0  0  0  0  0  0999 V2000
  -29.0048   17.3504  -14.8339 C   0  0  0  0  0  0  0  0  0  0  0  0
  -28.6327   16.5758  -16.1119 C   0  0  0  0  0  0  0  0  0  0  0  0
  -30.0801   16.8573  -16.6188 C   0  0  1  0  0  0  0  0  0  0  0  0
  -30.4725   16.9452  -15.1045 C   0  0  2  0  0  0  0  0  0  0  0  0
  -31.6256   17.8766  -14.7290 C   0  0  0  0  0  0  0  0  0  0  0  0
  -32.3207   18.4535  -15.5704 O   0  0  0  0  0  0  0  0  0  0  0  0
  -31.8567   18.0599  -13.3985 N   0  0  0  0  0  0  0  0  0  0  0  0
  -30.2441   18.0966  -17.5504 C   0  0  0  0  0  0  0  0  0  0  0  0
  -30.6062   19.2106  -17.1796 O   0  0  0  0  0  0  0  0  0  0  0  0
  -29.9160   17.8964  -18.8537 O   0  0  0  0  0  0  0  0  0  0  0  0
  -31.3046   17.6252  -12.6717 H   0  0  0  0  0  0  0  0  0  0  0  0
  -32.6022   18.6879  -13.1243 H   0  0  0  0  0  0  0  0  0  0  0  0
  -29.4825   17.0303  -19.0467 H   0  0  0  0  0  0  0  0  0  0  0  0
  1  2  1  0  0  0  0
  1  4  1  0  0  0  0
  2  3  1  0  0  0  0
  3  8  1  6  0  0  0
  3  4  1  0  0  0  0
  4  5  1  6  0  0  0
  5  6  2  0  0  0  0
  5  7  1  0  0  0  0
  7 11  1  0  0  0  0
  7 12  1  0  0  0  0
  8  9  2  0  0  0  0
  8 10  1  0  0  0  0
 10 13  1  0  0  0  0
M  END
>  <CHROM.0>
-58.85953075,55.03602648,-68.13499548,-42.45032389,-52.60187142,-60.55083838
-68.32815110,-59.22567557,-167.60203309

>  <CHROM.1>
-97.02768867,110.54051970,-8.70373937,-30.49895267,17.77032536,-16.02099242
-2.10139281,0.56220772,-1.30061947

>  <Name>
P59189804

>  <RI>
0

>  <Rbt.Current_Directory>
/home/fstefaniak/projects/zuza/docking/adenine/4TZX

>  <Rbt.Executable>
rbdock ($Id: //depot/dev/client3/rdock/2013.1/src/exe/rbdock.cxx#4 $)

>  <Rbt.Library>
libRbt.so (2013.1, Build901 2013/11/27)

>  <Rbt.Parameter_File>
/home/fstefaniak/progs/rDock//data/scripts/dock_solv.prm

>  <Rbt.Receptor>
4tzx.prm

>  <SCORE>
-50.5079

>  <SCORE.INTER>
-30.9326

>  <SCORE.INTER.CONST>
1

>  <SCORE.INTER.POLAR>
-3.89436

>  <SCORE.INTER.ROT>
2

>  <SCORE.INTER.SOLV>
12.6734

>  <SCORE.INTER.VDW>
-16.7983

>  <SCORE.INTER.norm>
-3.09326

>  <SCORE.INTRA>
0.585214

>  <SCORE.INTRA.DIHEDRAL>
-1.39893

>  <SCORE.INTRA.DIHEDRAL.0>
3.79962

>  <SCORE.INTRA.POLAR>
0.357849

>  <SCORE.INTRA.POLAR.0>
-0.357849

>  <SCORE.INTRA.REPUL>
0

>  <SCORE.INTRA.REPUL.0>
0

>  <SCORE.INTRA.SOLV>
-0.107434

>  <SCORE.INTRA.SOLV.lig_0>
-13.5001

>  <SCORE.INTRA.VDW>
0.121712

>  <SCORE.INTRA.VDW.0>
-0.644389

>  <SCORE.INTRA.norm>
0.0585214

>  <SCORE.RESTR>
0

>  <SCORE.RESTR.CAVITY>
0

>  <SCORE.RESTR.norm>
0

>  <SCORE.SYSTEM>
-20.1605

>  <SCORE.SYSTEM.CONST>
0

>  <SCORE.SYSTEM.DIHEDRAL>
5.15581

>  <SCORE.SYSTEM.POLAR>
-3.08726

>  <SCORE.SYSTEM.SOLV>
0.270633

>  <SCORE.SYSTEM.VDW>
-4.95828

>  <SCORE.SYSTEM.norm>
-2.01605

>  <SCORE.heavy>
10

>  <SCORE.norm>
-5.05079

$$$$
P59190002
 OpenBabel12072022113D
libRbt.so/2013.1/901 2013/11/27
 12 13  0  0  0  0  0  0  0  0999 V2000
  -28.2122   16.4814  -16.2526 C   0  0  0  0  0  0  0  0  0  0  0  0
  -28.6228   17.4362  -15.1101 C   0  0  0  0  0  0  0  0  0  0  0  0
  -30.1615   17.4942  -15.2342 C   0  0  2  0  0  0  0  0  0  0  0  0
  -30.4942   16.0633  -15.6847 C   0  0  0  0  0  0  0  0  0  0  0  0
  -29.5544   16.1002  -16.8864 C   0  0  1  0  0  0  0  0  0  0  0  0
  -30.0725   17.3575  -17.5514 C   0  0  0  0  0  0  0  0  0  0  0  0
  -30.0620   17.5741  -18.7520 O   0  0  0  0  0  0  0  0  0  0  0  0
  -30.5461   18.3212  -16.4898 C   0  0  0  0  0  0  0  0  0  0  0  0
  -30.8797   17.9636  -13.9917 C   0  0  0  0  0  0  0  0  0  0  0  0
  -30.3308   18.1253  -12.9124 O   0  0  0  0  0  0  0  0  0  0  0  0
  -32.2032   18.1712  -14.1525 O   0  0  0  0  0  0  0  0  0  0  0  0
  -32.6927   18.4333  -13.3519 H   0  0  0  0  0  0  0  0  0  0  0  0
  1  2  1  0  0  0  0
  2  3  1  0  0  0  0
  3  4  1  0  0  0  0
  3  8  1  0  0  0  0
  3  9  1  1  0  0  0
  4  5  1  0  0  0  0
  5  1  1  1  0  0  0
  5  6  1  0  0  0  0
  6  8  1  0  0  0  0
  6  7  2  0  0  0  0
  9 10  2  0  0  0  0
  9 11  1  0  0  0  0
 11 12  1  0  0  0  0
M  END
>  <CHROM.0>
-61.60304033,-63.25154601,-68.18998405,-43.11536317,-54.08730179,-57.85779889
-67.07773853,-61.86747642,-168.74016591

>  <CHROM.1>
-9.07141615,177.17663202,-30.14284782,17.40022848,-15.69359005,-1.19647252
-0.46576236,1.49571168

>  <Name>
P59190002

>  <RI>
0

>  <Rbt.Current_Directory>
/home/fstefaniak/projects/zuza/docking/adenine/4TZX

>  <Rbt.Executable>
rbdock ($Id: //depot/dev/client3/rdock/2013.1/src/exe/rbdock.cxx#4 $)

>  <Rbt.Library>
libRbt.so (2013.1, Build901 2013/11/27)

>  <Rbt.Parameter_File>
/home/fstefaniak/progs/rDock//data/scripts/dock_solv.prm

>  <Rbt.Receptor>
4tzx.prm

>  <SCORE>
-40.5568

>  <SCORE.INTER>
-19.3972

>  <SCORE.INTER.CONST>
1

>  <SCORE.INTER.POLAR>
-1.47613

>  <SCORE.INTER.ROT>
1

>  <SCORE.INTER.SOLV>
11.0533

>  <SCORE.INTER.VDW>
-15.9621

>  <SCORE.INTER.norm>
-1.76338

>  <SCORE.INTRA>
-0.039334

>  <SCORE.INTRA.DIHEDRAL>
0.165782

>  <SCORE.INTRA.DIHEDRAL.0>
0.328475

>  <SCORE.INTRA.POLAR>
0

>  <SCORE.INTRA.POLAR.0>
0

>  <SCORE.INTRA.REPUL>
0

>  <SCORE.INTRA.REPUL.0>
0

>  <SCORE.INTRA.SOLV>
0.175541

>  <SCORE.INTRA.SOLV.lig_0>
-9.35988

>  <SCORE.INTRA.VDW>
-0.209996

>  <SCORE.INTRA.VDW.0>
0.0780325

>  <SCORE.INTRA.norm>
-0.00357582

>  <SCORE.RESTR>
0

>  <SCORE.RESTR.CAVITY>
0

>  <SCORE.RESTR.norm>
0

>  <SCORE.SYSTEM>
-21.1203

>  <SCORE.SYSTEM.CONST>
0

>  <SCORE.SYSTEM.DIHEDRAL>
4.74758

>  <SCORE.SYSTEM.POLAR>
-3.05483

>  <SCORE.SYSTEM.SOLV>
0.184683

>  <SCORE.SYSTEM.VDW>
-5.54151

>  <SCORE.SYSTEM.norm>
-1.92003

>  <SCORE.heavy>
11

>  <SCORE.norm>
-3.68698

$$$$
P59190002
 OpenBabel12072022113D
libRbt.so/2013.1/901 2013/11/27
 12 13  0  0  0  0  0  0  0  0999 V2000
  -28.1105   16.4045  -16.3801 C   0  0  0  0  0  0  0  0  0  0  0  0
  -28.5522   17.4296  -15.3124 C   0  0  0  0  0  0  0  0  0  0  0  0
  -30.0881   17.4667  -15.4725 C   0  0  2  0  0  0  0  0  0  0  0  0
  -30.4014   16.0064  -15.8338 C   0  0  0  0  0  0  0  0  0  0  0  0
  -29.4362   15.9712  -17.0152 C   0  0  1  0  0  0  0  0  0  0  0  0
  -29.9483   17.1773  -17.7731 C   0  0  0  0  0  0  0  0  0  0  0  0
  -29.9134   17.3139  -18.9849 O   0  0  0  0  0  0  0  0  0  0  0  0
  -30.4512   18.2054  -16.7881 C   0  0  0  0  0  0  0  0  0  0  0  0
  -30.8361   18.0116  -14.2793 C   0  0  0  0  0  0  0  0  0  0  0  0
  -31.7816   18.7801  -14.3659 O   0  0  0  0  0  0  0  0  0  0  0  0
  -30.3611   17.6031  -13.0842 O   0  0  0  0  0  0  0  0  0  0  0  0
  -30.9001   17.8419  -12.3085 H   0  0  0  0  0  0  0  0  0  0  0  0
  1  2  1  0  0  0  0
  2  3  1  0  0  0  0
  3  4  1  0  0  0  0
  3  8  1  0  0  0  0
  3  9  1  1  0  0  0
  4  5  1  0  0  0  0
  5  1  1  1  0  0  0
  5  6  1  0  0  0  0
  6  8  1  0  0  0  0
  6  7  2  0  0  0  0
  9 10  2  0  0  0  0
  9 11  1  0  0  0  0
 11 12  1  0  0  0  0
M  END
>  <CHROM.0>
-59.77624881,-64.38113610,-68.01957833,-43.65368434,-177.42524379,-61.13620187
-67.18462379,-61.76680224,-168.06019252

>  <CHROM.1>
137.78862130,-171.90696824,-30.01355246,17.33168692,-15.89077923,-1.18491451
-0.64637554,1.53188590

>  <Name>
P59190002

>  <RI>
0

>  <Rbt.Current_Directory>
/home/fstefaniak/projects/zuza/docking/adenine/4TZX

>  <Rbt.Executable>
rbdock ($Id: //depot/dev/client3/rdock/2013.1/src/exe/rbdock.cxx#4 $)

>  <Rbt.Library>
libRbt.so (2013.1, Build901 2013/11/27)

>  <Rbt.Parameter_File>
/home/fstefaniak/progs/rDock//data/scripts/dock_solv.prm

>  <Rbt.Receptor>
4tzx.prm

>  <SCORE>
-40.4239

>  <SCORE.INTER>
-19.544

>  <SCORE.INTER.CONST>
1

>  <SCORE.INTER.POLAR>
-1.85711

>  <SCORE.INTER.ROT>
1

>  <SCORE.INTER.SOLV>
11.3915

>  <SCORE.INTER.VDW>
-14.9028

>  <SCORE.INTER.norm>
-1.77672

>  <SCORE.INTRA>
0.446291

>  <SCORE.INTRA.DIHEDRAL>
0.975406

>  <SCORE.INTRA.DIHEDRAL.0>
0.328475

>  <SCORE.INTRA.POLAR>
0

>  <SCORE.INTRA.POLAR.0>
0

>  <SCORE.INTRA.REPUL>
0

>  <SCORE.INTRA.REPUL.0>
0

>  <SCORE.INTRA.SOLV>
0.168352

>  <SCORE.INTRA.SOLV.lig_0>
-9.35988

>  <SCORE.INTRA.VDW>
-0.125588

>  <SCORE.INTRA.VDW.0>
0.0780325

>  <SCORE.INTRA.norm>
0.0405719

>  <SCORE.RESTR>
0

>  <SCORE.RESTR.CAVITY>
0

>  <SCORE.RESTR.norm>
0

>  <SCORE.SYSTEM>
-21.3262

>  <SCORE.SYSTEM.CONST>
0

>  <SCORE.SYSTEM.DIHEDRAL>
4.61948

>  <SCORE.SYSTEM.POLAR>
-3.03456

>  <SCORE.SYSTEM.SOLV>
-0.00981035

>  <SCORE.SYSTEM.VDW>
-5.63881

>  <SCORE.SYSTEM.norm>
-1.93875

>  <SCORE.heavy>
11

>  <SCORE.norm>
-3.6749

$$$$
P59190002
 OpenBabel12072022113D
libRbt.so/2013.1/901 2013/11/27
 12 13  0  0  0  0  0  0  0  0999 V2000
  -28.1238   16.4069  -16.3906 C   0  0  0  0  0  0  0  0  0  0  0  0
  -28.5594   17.4407  -15.3289 C   0  0  0  0  0  0  0  0  0  0  0  0
  -30.0949   17.4874  -15.4905 C   0  0  2  0  0  0  0  0  0  0  0  0
  -30.4178   16.0273  -15.8441 C   0  0  0  0  0  0  0  0  0  0  0  0
  -29.4519   15.9792  -17.0245 C   0  0  1  0  0  0  0  0  0  0  0  0
  -29.9552   17.1846  -17.7894 C   0  0  0  0  0  0  0  0  0  0  0  0
  -29.9184   17.3144  -19.0018 O   0  0  0  0  0  0  0  0  0  0  0  0
  -30.4519   18.2215  -16.8103 C   0  0  0  0  0  0  0  0  0  0  0  0
  -30.8401   18.0438  -14.3009 C   0  0  0  0  0  0  0  0  0  0  0  0
  -31.7726   18.8276  -14.3918 O   0  0  0  0  0  0  0  0  0  0  0  0
  -30.3781   17.6270  -13.1035 O   0  0  0  0  0  0  0  0  0  0  0  0
  -30.9216   17.8668  -12.3313 H   0  0  0  0  0  0  0  0  0  0  0  0
  1  2  1  0  0  0  0
  2  3  1  0  0  0  0
  3  4  1  0  0  0  0
  3  8  1  0  0  0  0
  3  9  1  1  0  0  0
  4  5  1  0  0  0  0
  5  1  1  1  0  0  0
  5  6  1  0  0  0  0
  6  8  1  0  0  0  0
  6  7  2  0  0  0  0
  9 10  2  0  0  0  0
  9 11  1  0  0  0  0
 11 12  1  0  0  0  0
M  END
>  <CHROM.0>
-60.09341722,-64.11917200,-65.29620398,-43.26038538,-175.64354450,-62.47538540
-67.61823310,-179.29229985,-168.98354582

>  <CHROM.1>
137.10279218,-171.34025940,-30.02116796,17.34928939,-15.90791082,-1.18252168
-0.65672293,1.52957906

>  <Name>
P59190002

>  <RI>
0

>  <Rbt.Current_Directory>
/home/fstefaniak/projects/zuza/docking/adenine/4TZX

>  <Rbt.Executable>
rbdock ($Id: //depot/dev/client3/rdock/2013.1/src/exe/rbdock.cxx#4 $)

>  <Rbt.Library>
libRbt.so (2013.1, Build901 2013/11/27)

>  <Rbt.Parameter_File>
/home/fstefaniak/progs/rDock//data/scripts/dock_solv.prm

>  <Rbt.Receptor>
4tzx.prm

>  <SCORE>
-40.3504

>  <SCORE.INTER>
-19.4772

>  <SCORE.INTER.CONST>
1

>  <SCORE.INTER.POLAR>
-1.86561

>  <SCORE.INTER.ROT>
1

>  <SCORE.INTER.SOLV>
11.4085

>  <SCORE.INTER.VDW>
-14.8356

>  <SCORE.INTER.norm>
-1.77066

>  <SCORE.INTRA>
0.445434

>  <SCORE.INTRA.DIHEDRAL>
0.984048

>  <SCORE.INTRA.DIHEDRAL.0>
0.328475

>  <SCORE.INTRA.POLAR>
0

>  <SCORE.INTRA.POLAR.0>
0

>  <SCORE.INTRA.REPUL>
0

>  <SCORE.INTRA.REPUL.0>
0

>  <SCORE.INTRA.SOLV>
0.168185

>  <SCORE.INTRA.SOLV.lig_0>
-9.35988

>  <SCORE.INTRA.VDW>
-0.130683

>  <SCORE.INTRA.VDW.0>
0.0780325

>  <SCORE.INTRA.norm>
0.040494

>  <SCORE.RESTR>
0

>  <SCORE.RESTR.CAVITY>
0

>  <SCORE.RESTR.norm>
0

>  <SCORE.SYSTEM>
-21.3186

>  <SCORE.SYSTEM.CONST>
0

>  <SCORE.SYSTEM.DIHEDRAL>
4.50563

>  <SCORE.SYSTEM.POLAR>
-3.04699

>  <SCORE.SYSTEM.SOLV>
-0.138261

>  <SCORE.SYSTEM.VDW>
-5.51156

>  <SCORE.SYSTEM.norm>
-1.93805

>  <SCORE.heavy>
11

>  <SCORE.norm>
-3.66822

$$$$
P59191345
 OpenBabel12072022113D
libRbt.so/2013.1/901 2013/11/27
 11 10  0  0  0  0  0  0  0  0999 V2000
  -31.3961   17.9956  -13.5459 C   0  0  0  0  0  0  0  0  0  0  0  0
  -30.8887   18.1595  -14.9587 C   0  0  0  0  0  0  0  0  0  0  0  0
  -31.3227   19.0764  -15.6660 O   0  0  0  0  0  0  0  0  0  0  0  0
  -29.8327   17.1149  -15.4493 C   0  0  2  0  0  0  0  0  0  0  0  0
  -29.5710   17.2851  -16.9425 C   0  0  0  0  0  0  0  0  0  0  0  0
  -30.3248   15.7526  -15.2096 N   0  0  0  0  0  0  0  0  0  0  0  0
  -29.3286   14.8375  -15.7574 O   0  0  0  0  0  0  0  0  0  0  0  0
  -28.6152   17.2594  -14.7531 O   0  0  0  0  0  0  0  0  0  0  0  0
  -31.1377   15.5838  -15.8053 H   0  0  0  0  0  0  0  0  0  0  0  0
  -29.5047   14.0270  -15.2292 H   0  0  0  0  0  0  0  0  0  0  0  0
  -28.8932   17.1607  -13.8225 H   0  0  0  0  0  0  0  0  0  0  0  0
  1  2  1  0  0  0  0
  2  3  2  0  0  0  0
  4  6  1  0  0  0  0
  4  8  1  0  0  0  0
  4  5  1  6  0  0  0
  4  2  1  0  0  0  0
  6  7  1  0  0  0  0
  6  9  1  0  0  0  0
  7 10  1  0  0  0  0
  8 11  1  0  0  0  0
M  END
>  <CHROM.0>
-58.09222302,55.96715694,-64.37286068,-41.82262657,-65.51416784,-67.04352875
-64.64743414,-63.42864673,-168.95834592

>  <CHROM.1>
176.85298365,56.66822820,171.79287047,155.82451149,-30.13053632,17.13094168
-15.28425465,2.73196251,0.99445863,-0.80461345

>  <Name>
P59191345

>  <RI>
0

>  <Rbt.Current_Directory>
/home/fstefaniak/projects/zuza/docking/adenine/4TZX

>  <Rbt.Executable>
rbdock ($Id: //depot/dev/client3/rdock/2013.1/src/exe/rbdock.cxx#4 $)

>  <Rbt.Library>
libRbt.so (2013.1, Build901 2013/11/27)

>  <Rbt.Parameter_File>
/home/fstefaniak/progs/rDock//data/scripts/dock_solv.prm

>  <Rbt.Receptor>
4tzx.prm

>  <SCORE>
-48.5748

>  <SCORE.INTER>
-29.3985

>  <SCORE.INTER.CONST>
1

>  <SCORE.INTER.POLAR>
-4.73384

>  <SCORE.INTER.ROT>
2

>  <SCORE.INTER.SOLV>
12.6073

>  <SCORE.INTER.VDW>
-12.9553

>  <SCORE.INTER.norm>
-3.67481

>  <SCORE.INTRA>
1.01757

>  <SCORE.INTRA.DIHEDRAL>
-2.43315

>  <SCORE.INTRA.DIHEDRAL.0>
3.39686

>  <SCORE.INTRA.POLAR>
0.278763

>  <SCORE.INTRA.POLAR.0>
-0.278763

>  <SCORE.INTRA.REPUL>
0

>  <SCORE.INTRA.REPUL.0>
0

>  <SCORE.INTRA.SOLV>
-0.727648

>  <SCORE.INTRA.SOLV.lig_0>
-16.9221

>  <SCORE.INTRA.VDW>
1.65018

>  <SCORE.INTRA.VDW.0>
0.64514

>  <SCORE.INTRA.norm>
0.127197

>  <SCORE.RESTR>
0

>  <SCORE.RESTR.CAVITY>
0

>  <SCORE.RESTR.norm>
0

>  <SCORE.SYSTEM>
-20.1939

>  <SCORE.SYSTEM.CONST>
0

>  <SCORE.SYSTEM.DIHEDRAL>
4.82475

>  <SCORE.SYSTEM.POLAR>
-3.0858

>  <SCORE.SYSTEM.SOLV>
0.249777

>  <SCORE.SYSTEM.VDW>
-4.86809

>  <SCORE.SYSTEM.norm>
-2.52423

>  <SCORE.heavy>
8

>  <SCORE.norm>
-6.07185

$$$$
P59191345
 OpenBabel12072022113D
libRbt.so/2013.1/901 2013/11/27
 11 10  0  0  0  0  0  0  0  0999 V2000
  -31.3707   18.0594  -13.5048 C   0  0  0  0  0  0  0  0  0  0  0  0
  -30.9558   18.1101  -14.9559 C   0  0  0  0  0  0  0  0  0  0  0  0
  -31.5100   18.9020  -15.7272 O   0  0  0  0  0  0  0  0  0  0  0  0
  -29.8341   17.1137  -15.3988 C   0  0  2  0  0  0  0  0  0  0  0  0
  -29.5018   17.3098  -16.8747 C   0  0  0  0  0  0  0  0  0  0  0  0
  -30.2826   15.7304  -15.1968 N   0  0  0  0  0  0  0  0  0  0  0  0
  -29.2659   14.8632  -15.7835 O   0  0  0  0  0  0  0  0  0  0  0  0
  -28.6616   17.2995  -14.6382 O   0  0  0  0  0  0  0  0  0  0  0  0
  -31.0969   15.5557  -15.7889 H   0  0  0  0  0  0  0  0  0  0  0  0
  -29.3999   14.0373  -15.2670 H   0  0  0  0  0  0  0  0  0  0  0  0
  -28.9728   17.1287  -13.7287 H   0  0  0  0  0  0  0  0  0  0  0  0
  1  2  1  0  0  0  0
  2  3  2  0  0  0  0
  4  6  1  0  0  0  0
  4  8  1  0  0  0  0
  4  5  1  6  0  0  0
  4  2  1  0  0  0  0
  6  7  1  0  0  0  0
  6  9  1  0  0  0  0
  7 10  1  0  0  0  0
  8 11  1  0  0  0  0
M  END
>  <CHROM.0>
-59.26346699,-63.73832701,-73.01968136,-43.26018915,-51.54766576,-63.21555620
-171.58140011,59.09667535,-167.26021269

>  <CHROM.1>
172.95937902,59.83204329,-178.53732869,154.77474185,-30.14296267,17.11941276
-15.25929697,2.99214561,0.99560590,-1.08562690

>  <Name>
P59191345

>  <RI>
0

>  <Rbt.Current_Directory>
/home/fstefaniak/projects/zuza/docking/adenine/4TZX

>  <Rbt.Executable>
rbdock ($Id: //depot/dev/client3/rdock/2013.1/src/exe/rbdock.cxx#4 $)

>  <Rbt.Library>
libRbt.so (2013.1, Build901 2013/11/27)

>  <Rbt.Parameter_File>
/home/fstefaniak/progs/rDock//data/scripts/dock_solv.prm

>  <Rbt.Receptor>
4tzx.prm

>  <SCORE>
-47.6992

>  <SCORE.INTER>
-29.5774

>  <SCORE.INTER.CONST>
1

>  <SCORE.INTER.POLAR>
-4.72636

>  <SCORE.INTER.ROT>
2

>  <SCORE.INTER.SOLV>
12.5621

>  <SCORE.INTER.VDW>
-13.0844

>  <SCORE.INTER.norm>
-3.69717

>  <SCORE.INTRA>
1.37846

>  <SCORE.INTRA.DIHEDRAL>
-2.50206

>  <SCORE.INTRA.DIHEDRAL.0>
3.39686

>  <SCORE.INTRA.POLAR>
0.278763

>  <SCORE.INTRA.POLAR.0>
-0.278763

>  <SCORE.INTRA.REPUL>
0

>  <SCORE.INTRA.REPUL.0>
0

>  <SCORE.INTRA.SOLV>
-0.750969

>  <SCORE.INTRA.SOLV.lig_0>
-16.9221

>  <SCORE.INTRA.VDW>
2.05718

>  <SCORE.INTRA.VDW.0>
0.64514

>  <SCORE.INTRA.norm>
0.172307

>  <SCORE.RESTR>
0

>  <SCORE.RESTR.CAVITY>
0

>  <SCORE.RESTR.norm>
0

>  <SCORE.SYSTEM>
-19.5003

>  <SCORE.SYSTEM.CONST>
0

>  <SCORE.SYSTEM.DIHEDRAL>
5.59534

>  <SCORE.SYSTEM.POLAR>
-3.04711

>  <SCORE.SYSTEM.SOLV>
-0.0148126

>  <SCORE.SYSTEM.VDW>
-4.70332

>  <SCORE.SYSTEM.norm>
-2.43753

>  <SCORE.heavy>
8

>  <SCORE.norm>
-5.9624

$$$$
P59191345
 OpenBabel12072022113D
libRbt.so/2013.1/901 2013/11/27
 11 10  0  0  0  0  0  0  0  0999 V2000
  -31.4147   18.0542  -13.5112 C   0  0  0  0  0  0  0  0  0  0  0  0
  -30.9450   18.1630  -14.9423 C   0  0  0  0  0  0  0  0  0  0  0  0
  -31.4416   19.0135  -15.6900 O   0  0  0  0  0  0  0  0  0  0  0  0
  -29.8442   17.1489  -15.3971 C   0  0  2  0  0  0  0  0  0  0  0  0
  -29.5253   17.3392  -16.8768 C   0  0  0  0  0  0  0  0  0  0  0  0
  -30.3121   15.7729  -15.1894 N   0  0  0  0  0  0  0  0  0  0  0  0
  -29.2783   14.8875  -15.7159 O   0  0  0  0  0  0  0  0  0  0  0  0
  -28.6605   17.3164  -14.6498 O   0  0  0  0  0  0  0  0  0  0  0  0
  -31.1017   15.5932  -15.8127 H   0  0  0  0  0  0  0  0  0  0  0  0
  -29.4756   14.0556  -15.2302 H   0  0  0  0  0  0  0  0  0  0  0  0
  -28.9657   17.1587  -13.7360 H   0  0  0  0  0  0  0  0  0  0  0  0
  1  2  1  0  0  0  0
  2  3  2  0  0  0  0
  4  6  1  0  0  0  0
  4  8  1  0  0  0  0
  4  5  1  6  0  0  0
  4  2  1  0  0  0  0
  6  7  1  0  0  0  0
  6  9  1  0  0  0  0
  7 10  1  0  0  0  0
  8 11  1  0  0  0  0
M  END
>  <CHROM.0>
-57.84563033,59.76878508,63.24263913,-44.26189191,-58.72253169,-174.26306280
55.57405279,-174.34339317,-167.49188359

>  <CHROM.1>
176.25961830,59.34878930,177.26255800,158.04489327,-30.14781420,17.15757334
-15.24539550,2.85003601,0.98600641,-0.93806932

>  <Name>
P59191345

>  <RI>
0

>  <Rbt.Current_Directory>
/home/fstefaniak/projects/zuza/docking/adenine/4TZX

>  <Rbt.Executable>
rbdock ($Id: //depot/dev/client3/rdock/2013.1/src/exe/rbdock.cxx#4 $)

>  <Rbt.Library>
libRbt.so (2013.1, Build901 2013/11/27)

>  <Rbt.Parameter_File>
/home/fstefaniak/progs/rDock//data/scripts/dock_solv.prm

>  <Rbt.Receptor>
4tzx.prm

>  <SCORE>
-46.4481

>  <SCORE.INTER>
-29.5031

>  <SCORE.INTER.CONST>
1

>  <SCORE.INTER.POLAR>
-4.6947

>  <SCORE.INTER.ROT>
2

>  <SCORE.INTER.SOLV>
12.6033

>  <SCORE.INTER.VDW>
-13.1542

>  <SCORE.INTER.norm>
-3.68789

>  <SCORE.INTRA>
1.02687

>  <SCORE.INTRA.DIHEDRAL>
-2.57725

>  <SCORE.INTRA.DIHEDRAL.0>
3.39686

>  <SCORE.INTRA.POLAR>
0.278763

>  <SCORE.INTRA.POLAR.0>
-0.278763

>  <SCORE.INTRA.REPUL>
0

>  <SCORE.INTRA.REPUL.0>
0

>  <SCORE.INTRA.SOLV>
-0.734074

>  <SCORE.INTRA.SOLV.lig_0>
-16.9221

>  <SCORE.INTRA.VDW>
1.73474

>  <SCORE.INTRA.VDW.0>
0.64514

>  <SCORE.INTRA.norm>
0.128359

>  <SCORE.RESTR>
0

>  <SCORE.RESTR.CAVITY>
0

>  <SCORE.RESTR.norm>
0

>  <SCORE.SYSTEM>
-17.9718

>  <SCORE.SYSTEM.CONST>
0

>  <SCORE.SYSTEM.DIHEDRAL>
4.38896

>  <SCORE.SYSTEM.POLAR>
-3.01277

>  <SCORE.SYSTEM.SOLV>
-0.108456

>  <SCORE.SYSTEM.VDW>
-3.3655

>  <SCORE.SYSTEM.norm>
-2.24648

>  <SCORE.heavy>
8

>  <SCORE.norm>
-5.80601

$$$$
P59192640
 OpenBabel12072022113D
libRbt.so/2013.1/901 2013/11/27
 11 11  0  0  0  0  0  0  0  0999 V2000
  -27.1767   15.9150  -16.1005 C   0  0  0  0  0  0  0  0  0  0  0  0
  -28.4066   16.7947  -15.9449 C   0  0  1  0  0  0  0  0  0  0  0  0
  -29.5569   16.3941  -16.8388 C   0  0  0  0  0  0  0  0  0  0  0  0
  -30.7449   17.0170  -16.1317 C   0  0  1  0  0  0  0  0  0  0  0  0
  -30.3450   17.2520  -14.7820 O   0  0  0  0  0  0  0  0  0  0  0  0
  -29.0157   16.6718  -14.6141 N   0  0  0  0  0  0  0  0  0  0  0  0
  -28.2501   17.5539  -13.7542 O   0  0  0  0  0  0  0  0  0  0  0  0
  -31.1903   18.3085  -16.8079 C   0  0  0  0  0  0  0  0  0  0  0  0
  -31.7003   19.2225  -16.1532 O   0  0  0  0  0  0  0  0  0  0  0  0
  -31.0749   18.4114  -18.3072 C   0  0  0  0  0  0  0  0  0  0  0  0
  -28.8649   18.3070  -13.6821 H   0  0  0  0  0  0  0  0  0  0  0  0
  2  1  1  1  0  0  0
  2  3  1  0  0  0  0
  2  6  1  0  0  0  0
  3  4  1  0  0  0  0
  4  5  1  0  0  0  0
  4  8  1  6  0  0  0
  5  6  1  0  0  0  0
  6  7  1  0  0  0  0
  7 11  1  0  0  0  0
  8  9  2  0  0  0  0
  8 10  1  0  0  0  0
M  END
>  <CHROM.0>
-63.49823695,-65.09708457,-64.83200915,-43.73939884,-177.49202912,-63.92031966
-68.05695722,-59.55990973,-169.47062127

>  <CHROM.1>
-149.23288979,103.14411469,-29.72817735,17.37783638,-15.88940958,-0.38253409
0.60632248,-1.77960395

>  <Name>
P59192640

>  <RI>
0

>  <Rbt.Current_Directory>
/home/fstefaniak/projects/zuza/docking/adenine/4TZX

>  <Rbt.Executable>
rbdock ($Id: //depot/dev/client3/rdock/2013.1/src/exe/rbdock.cxx#4 $)

>  <Rbt.Library>
libRbt.so (2013.1, Build901 2013/11/27)

>  <Rbt.Parameter_File>
/home/fstefaniak/progs/rDock//data/scripts/dock_solv.prm

>  <Rbt.Receptor>
4tzx.prm

>  <SCORE>
-46.1486

>  <SCORE.INTER>
-25.8139

>  <SCORE.INTER.CONST>
1

>  <SCORE.INTER.POLAR>
-3.97681

>  <SCORE.INTER.ROT>
1

>  <SCORE.INTER.SOLV>
12.2994

>  <SCORE.INTER.VDW>
-12.3197

>  <SCORE.INTER.norm>
-2.58139

>  <SCORE.INTRA>
0.974304

>  <SCORE.INTRA.DIHEDRAL>
-0.47096

>  <SCORE.INTRA.DIHEDRAL.0>
2.70884

>  <SCORE.INTRA.POLAR>
0

>  <SCORE.INTRA.POLAR.0>
0

>  <SCORE.INTRA.REPUL>
0

>  <SCORE.INTRA.REPUL.0>
0

>  <SCORE.INTRA.SOLV>
-0.276145

>  <SCORE.INTRA.SOLV.lig_0>
-16.511

>  <SCORE.INTRA.VDW>
1.34786

>  <SCORE.INTRA.VDW.0>
0.150243

>  <SCORE.INTRA.norm>
0.0974304

>  <SCORE.RESTR>
0

>  <SCORE.RESTR.CAVITY>
0

>  <SCORE.RESTR.norm>
0

>  <SCORE.SYSTEM>
-21.309

>  <SCORE.SYSTEM.CONST>
0

>  <SCORE.SYSTEM.DIHEDRAL>
4.4854

>  <SCORE.SYSTEM.POLAR>
-3.00723

>  <SCORE.SYSTEM.SOLV>
-0.0171357

>  <SCORE.SYSTEM.VDW>
-5.67132

>  <SCORE.SYSTEM.norm>
-2.1309

>  <SCORE.heavy>
10

>  <SCORE.norm>
-4.61486

$$$$
P59192640
 OpenBabel12072022113D
libRbt.so/2013.1/901 2013/11/27
 11 11  0  0  0  0  0  0  0  0999 V2000
  -27.1297   15.9789  -16.1283 C   0  0  0  0  0  0  0  0  0  0  0  0
  -28.4143   16.7674  -15.9316 C   0  0  1  0  0  0  0  0  0  0  0  0
  -29.5654   16.2740  -16.7767 C   0  0  0  0  0  0  0  0  0  0  0  0
  -30.7681   16.8154  -16.0285 C   0  0  1  0  0  0  0  0  0  0  0  0
  -30.3350   17.0935  -14.6974 O   0  0  0  0  0  0  0  0  0  0  0  0
  -28.9611   16.6143  -14.5771 N   0  0  0  0  0  0  0  0  0  0  0  0
  -28.2301   17.5594  -13.7546 O   0  0  0  0  0  0  0  0  0  0  0  0
  -31.3332   18.0635  -16.6968 C   0  0  0  0  0  0  0  0  0  0  0  0
  -32.1629   18.7710  -16.1178 O   0  0  0  0  0  0  0  0  0  0  0  0
  -30.9229   18.3676  -18.1149 C   0  0  0  0  0  0  0  0  0  0  0  0
  -28.8594   18.3038  -13.7400 H   0  0  0  0  0  0  0  0  0  0  0  0
  2  1  1  1  0  0  0
  2  3  1  0  0  0  0
  2  6  1  0  0  0  0
  3  4  1  0  0  0  0
  4  5  1  0  0  0  0
  4  8  1  6  0  0  0
  5  6  1  0  0  0  0
  6  7  1  0  0  0  0
  7 11  1  0  0  0  0
  8  9  2  0  0  0  0
  8 10  1  0  0  0  0
M  END
>  <CHROM.0>
-60.94217956,-59.77499843,-56.63161832,-43.81589629,-57.02349274,-62.97566883
-66.54582114,-57.72926478,-169.01428300

>  <CHROM.1>
-167.70631308,97.65207088,-29.76534864,17.25531039,-15.83037572,-0.37565386
0.49647474,-1.71154598

>  <Name>
P59192640

>  <RI>
0

>  <Rbt.Current_Directory>
/home/fstefaniak/projects/zuza/docking/adenine/4TZX

>  <Rbt.Executable>
rbdock ($Id: //depot/dev/client3/rdock/2013.1/src/exe/rbdock.cxx#4 $)

>  <Rbt.Library>
libRbt.so (2013.1, Build901 2013/11/27)

>  <Rbt.Parameter_File>
/home/fstefaniak/progs/rDock//data/scripts/dock_solv.prm

>  <Rbt.Receptor>
4tzx.prm

>  <SCORE>
-45.9453

>  <SCORE.INTER>
-27.5034

>  <SCORE.INTER.CONST>
1

>  <SCORE.INTER.POLAR>
-4.27341

>  <SCORE.INTER.ROT>
1

>  <SCORE.INTER.SOLV>
12.4249

>  <SCORE.INTER.VDW>
-12.4992

>  <SCORE.INTER.norm>
-2.75034

>  <SCORE.INTRA>
2.52416

>  <SCORE.INTRA.DIHEDRAL>
0.159554

>  <SCORE.INTRA.DIHEDRAL.0>
2.70884

>  <SCORE.INTRA.POLAR>
0

>  <SCORE.INTRA.POLAR.0>
0

>  <SCORE.INTRA.REPUL>
0

>  <SCORE.INTRA.REPUL.0>
0

>  <SCORE.INTRA.SOLV>
-0.325946

>  <SCORE.INTRA.SOLV.lig_0>
-16.511

>  <SCORE.INTRA.VDW>
2.60736

>  <SCORE.INTRA.VDW.0>
0.150243

>  <SCORE.INTRA.norm>
0.252416

>  <SCORE.RESTR>
0

>  <SCORE.RESTR.CAVITY>
0

>  <SCORE.RESTR.norm>
0

>  <SCORE.SYSTEM>
-20.966

>  <SCORE.SYSTEM.CONST>
0

>  <SCORE.SYSTEM.DIHEDRAL>
4.19249

>  <SCORE.SYSTEM.POLAR>
-3.05578

>  <SCORE.SYSTEM.SOLV>
0.198708

>  <SCORE.SYSTEM.VDW>
-5.25515

>  <SCORE.SYSTEM.norm>
-2.0966

>  <SCORE.heavy>
10

>  <SCORE.norm>
-4.59453

$$$$
P59192640
 OpenBabel12072022113D
libRbt.so/2013.1/901 2013/11/27
 11 11  0  0  0  0  0  0  0  0999 V2000
  -27.2501   15.8410  -16.0739 C   0  0  0  0  0  0  0  0  0  0  0  0
  -28.4409   16.7756  -15.9347 C   0  0  1  0  0  0  0  0  0  0  0  0
  -29.6157   16.3965  -16.8058 C   0  0  0  0  0  0  0  0  0  0  0  0
  -30.7697   17.0896  -16.1078 C   0  0  1  0  0  0  0  0  0  0  0  0
  -30.3469   17.3485  -14.7696 O   0  0  0  0  0  0  0  0  0  0  0  0
  -29.0412   16.7186  -14.5955 N   0  0  0  0  0  0  0  0  0  0  0  0
  -28.2311   17.5936  -13.7697 O   0  0  0  0  0  0  0  0  0  0  0  0
  -31.1678   18.3776  -16.8194 C   0  0  0  0  0  0  0  0  0  0  0  0
  -31.6824   19.3115  -16.1971 O   0  0  0  0  0  0  0  0  0  0  0  0
  -31.0002   18.4533  -18.3154 C   0  0  0  0  0  0  0  0  0  0  0  0
  -28.8468   18.3392  -13.6462 H   0  0  0  0  0  0  0  0  0  0  0  0
  2  1  1  1  0  0  0
  2  3  1  0  0  0  0
  2  6  1  0  0  0  0
  3  4  1  0  0  0  0
  4  5  1  0  0  0  0
  4  8  1  6  0  0  0
  5  6  1  0  0  0  0
  6  7  1  0  0  0  0
  7 11  1  0  0  0  0
  8  9  2  0  0  0  0
  8 10  1  0  0  0  0
M  END
>  <CHROM.0>
-57.27730097,-61.44298404,-64.70730121,-42.53731332,-58.70933462,-61.40392066
-69.61391341,-58.86049756,-169.05112499

>  <CHROM.1>
-152.15380942,108.18443734,-29.73564191,17.41482792,-15.88536494,-0.36621686
0.64049748,-1.80646818

>  <Name>
P59192640

>  <RI>
0

>  <Rbt.Current_Directory>
/home/fstefaniak/projects/zuza/docking/adenine/4TZX

>  <Rbt.Executable>
rbdock ($Id: //depot/dev/client3/rdock/2013.1/src/exe/rbdock.cxx#4 $)

>  <Rbt.Library>
libRbt.so (2013.1, Build901 2013/11/27)

>  <Rbt.Parameter_File>
/home/fstefaniak/progs/rDock//data/scripts/dock_solv.prm

>  <Rbt.Receptor>
4tzx.prm

>  <SCORE>
-45.8857

>  <SCORE.INTER>
-26.0222

>  <SCORE.INTER.CONST>
1

>  <SCORE.INTER.POLAR>
-3.94663

>  <SCORE.INTER.ROT>
1

>  <SCORE.INTER.SOLV>
12.2759

>  <SCORE.INTER.VDW>
-12.5513

>  <SCORE.INTER.norm>
-2.60222

>  <SCORE.INTRA>
1.26047

>  <SCORE.INTRA.DIHEDRAL>
-0.296584

>  <SCORE.INTRA.DIHEDRAL.0>
2.70884

>  <SCORE.INTRA.POLAR>
0

>  <SCORE.INTRA.POLAR.0>
0

>  <SCORE.INTRA.REPUL>
0

>  <SCORE.INTRA.REPUL.0>
0

>  <SCORE.INTRA.SOLV>
-0.281379

>  <SCORE.INTRA.SOLV.lig_0>
-16.511

>  <SCORE.INTRA.VDW>
1.54945

>  <SCORE.INTRA.VDW.0>
0.150243

>  <SCORE.INTRA.norm>
0.126047

>  <SCORE.RESTR>
0

>  <SCORE.RESTR.CAVITY>
0

>  <SCORE.RESTR.norm>
0

>  <SCORE.SYSTEM>
-21.124

>  <SCORE.SYSTEM.CONST>
0

>  <SCORE.SYSTEM.DIHEDRAL>
4.59652

>  <SCORE.SYSTEM.POLAR>
-3.07814

>  <SCORE.SYSTEM.SOLV>
0.187462

>  <SCORE.SYSTEM.VDW>
-5.41686

>  <SCORE.SYSTEM.norm>
-2.1124

>  <SCORE.heavy>
10

>  <SCORE.norm>
-4.58857

$$$$
P59196469
 OpenBabel12072022113D
libRbt.so/2013.1/901 2013/11/27
 10 10  0  0  0  0  0  0  0  0999 V2000
  -28.8357   15.5538  -15.9489 C   0  0  0  0  0  0  0  0  0  0  0  0
  -29.7322   16.6847  -16.3771 C   0  0  0  0  0  0  0  0  0  0  0  0
  -29.8427   16.9586  -17.6444 N   0  0  0  0  0  0  0  0  0  0  0  0
  -30.6766   17.9950  -17.9393 N   0  0  0  0  0  0  0  0  0  0  0  0
  -30.9037   19.0432  -16.9400 C   0  0  0  0  0  0  0  0  0  0  0  0
  -31.3457   18.4802  -15.7090 O   0  0  0  0  0  0  0  0  0  0  0  0
  -30.4342   17.4988  -15.2723 C   0  0  1  0  0  0  0  0  0  0  0  0
  -31.1334   16.6389  -14.3928 O   0  0  0  0  0  0  0  0  0  0  0  0
  -30.4939   18.5772  -19.2681 C   0  0  0  0  0  0  0  0  0  0  0  0
  -31.5694   17.2482  -13.7719 H   0  0  0  0  0  0  0  0  0  0  0  0
  1  2  1  0  0  0  0
  2  3  2  0  0  0  0
  2  7  1  0  0  0  0
  3  4  1  0  0  0  0
  4  5  1  0  0  0  0
  4  9  1  0  0  0  0
  5  6  1  0  0  0  0
  6  7  1  0  0  0  0
  7  8  1  1  0  0  0
  8 10  1  0  0  0  0
M  END
>  <CHROM.0>
-60.73012336,-175.16055389,-66.64441975,-42.60629093,-178.30826514,-64.34199967
-67.31609671,58.92573795,-168.49754158

>  <CHROM.1>
-177.25626669,-30.41149470,17.49826484,-16.57003043,-1.47022182,0.87658323
-1.14658451

>  <Name>
P59196469

>  <RI>
0

>  <Rbt.Current_Directory>
/home/fstefaniak/projects/zuza/docking/adenine/4TZX

>  <Rbt.Executable>
rbdock ($Id: //depot/dev/client3/rdock/2013.1/src/exe/rbdock.cxx#4 $)

>  <Rbt.Library>
libRbt.so (2013.1, Build901 2013/11/27)

>  <Rbt.Parameter_File>
/home/fstefaniak/progs/rDock//data/scripts/dock_solv.prm

>  <Rbt.Receptor>
4tzx.prm

>  <SCORE>
-50.3683

>  <SCORE.INTER>
-29.8289

>  <SCORE.INTER.CONST>
1

>  <SCORE.INTER.POLAR>
-3.13505

>  <SCORE.INTER.ROT>
0

>  <SCORE.INTER.SOLV>
10.6474

>  <SCORE.INTER.VDW>
-16.5849

>  <SCORE.INTER.norm>
-3.31433

>  <SCORE.INTRA>
-0.252975

>  <SCORE.INTRA.DIHEDRAL>
-0.524065

>  <SCORE.INTRA.DIHEDRAL.0>
0.739456

>  <SCORE.INTRA.POLAR>
0

>  <SCORE.INTRA.POLAR.0>
0

>  <SCORE.INTRA.REPUL>
0

>  <SCORE.INTRA.REPUL.0>
0

>  <SCORE.INTRA.SOLV>
0.00258936

>  <SCORE.INTRA.SOLV.lig_0>
-12.3365

>  <SCORE.INTRA.VDW>
0.00776267

>  <SCORE.INTRA.VDW.0>
-0.132811

>  <SCORE.INTRA.norm>
-0.0281083

>  <SCORE.RESTR>
0

>  <SCORE.RESTR.CAVITY>
0

>  <SCORE.RESTR.norm>
0

>  <SCORE.SYSTEM>
-20.2864

>  <SCORE.SYSTEM.CONST>
0

>  <SCORE.SYSTEM.DIHEDRAL>
4.7194

>  <SCORE.SYSTEM.POLAR>
-3.05091

>  <SCORE.SYSTEM.SOLV>
-0.209593

>  <SCORE.SYSTEM.VDW>
-4.85786

>  <SCORE.SYSTEM.norm>
-2.25405

>  <SCORE.heavy>
9

>  <SCORE.norm>
-5.59648

$$$$
P59196469
 OpenBabel12072022113D
libRbt.so/2013.1/901 2013/11/27
 10 10  0  0  0  0  0  0  0  0999 V2000
  -28.7366   15.6525  -15.9210 C   0  0  0  0  0  0  0  0  0  0  0  0
  -29.6504   16.7674  -16.3543 C   0  0  0  0  0  0  0  0  0  0  0  0
  -29.8079   16.9978  -17.6254 N   0  0  0  0  0  0  0  0  0  0  0  0
  -30.6541   18.0228  -17.9247 N   0  0  0  0  0  0  0  0  0  0  0  0
  -30.8468   19.1043  -16.9540 C   0  0  0  0  0  0  0  0  0  0  0  0
  -31.2422   18.5833  -15.6891 O   0  0  0  0  0  0  0  0  0  0  0  0
  -30.3133   17.6182  -15.2530 C   0  0  1  0  0  0  0  0  0  0  0  0
  -30.9780   16.7881  -14.3196 O   0  0  0  0  0  0  0  0  0  0  0  0
  -30.5214   18.5594  -19.2783 C   0  0  0  0  0  0  0  0  0  0  0  0
  -31.5972   16.2745  -14.8671 H   0  0  0  0  0  0  0  0  0  0  0  0
  1  2  1  0  0  0  0
  2  3  2  0  0  0  0
  2  7  1  0  0  0  0
  3  4  1  0  0  0  0
  4  5  1  0  0  0  0
  4  9  1  0  0  0  0
  5  6  1  0  0  0  0
  6  7  1  0  0  0  0
  7  8  1  1  0  0  0
  8 10  1  0  0  0  0
M  END
>  <CHROM.0>
-59.29462869,-175.56901712,-64.63047296,-43.41626583,-55.13733584,-61.45025026
-66.74605899,57.26910469,-168.90371136

>  <CHROM.1>
-56.47475830,-30.33966651,17.56446447,-16.55887391,-1.40439241,0.88769174
-1.21207602

>  <Name>
P59196469

>  <RI>
0

>  <Rbt.Current_Directory>
/home/fstefaniak/projects/zuza/docking/adenine/4TZX

>  <Rbt.Executable>
rbdock ($Id: //depot/dev/client3/rdock/2013.1/src/exe/rbdock.cxx#4 $)

>  <Rbt.Library>
libRbt.so (2013.1, Build901 2013/11/27)

>  <Rbt.Parameter_File>
/home/fstefaniak/progs/rDock//data/scripts/dock_solv.prm

>  <Rbt.Receptor>
4tzx.prm

>  <SCORE>
-49.4951

>  <SCORE.INTER>
-29.2253

>  <SCORE.INTER.CONST>
1

>  <SCORE.INTER.POLAR>
-3.13505

>  <SCORE.INTER.ROT>
0

>  <SCORE.INTER.SOLV>
10.4406

>  <SCORE.INTER.VDW>
-16.1136

>  <SCORE.INTER.norm>
-3.24726

>  <SCORE.INTRA>
-0.157089

>  <SCORE.INTRA.DIHEDRAL>
-0.501203

>  <SCORE.INTRA.DIHEDRAL.0>
0.739456

>  <SCORE.INTRA.POLAR>
0

>  <SCORE.INTRA.POLAR.0>
0

>  <SCORE.INTRA.REPUL>
0

>  <SCORE.INTRA.REPUL.0>
0

>  <SCORE.INTRA.SOLV>
-0.00637023

>  <SCORE.INTRA.SOLV.lig_0>
-12.3365

>  <SCORE.INTRA.VDW>
0.0966973

>  <SCORE.INTRA.VDW.0>
-0.132811

>  <SCORE.INTRA.norm>
-0.0174543

>  <SCORE.RESTR>
0

>  <SCORE.RESTR.CAVITY>
0

>  <SCORE.RESTR.norm>
0

>  <SCORE.SYSTEM>
-20.1126

>  <SCORE.SYSTEM.CONST>
0

>  <SCORE.SYSTEM.DIHEDRAL>
4.45471

>  <SCORE.SYSTEM.POLAR>
-3.05856

>  <SCORE.SYSTEM.SOLV>
-0.0079577

>  <SCORE.SYSTEM.VDW>
-4.6955

>  <SCORE.SYSTEM.norm>
-2.23474

>  <SCORE.heavy>
9

>  <SCORE.norm>
-5.49945

$$$$
P59196469
 OpenBabel12072022113D
libRbt.so/2013.1/901 2013/11/27
 10 10  0  0  0  0  0  0  0  0999 V2000
  -28.7384   15.6650  -15.9251 C   0  0  0  0  0  0  0  0  0  0  0  0
  -29.6579   16.7696  -16.3729 C   0  0  0  0  0  0  0  0  0  0  0  0
  -29.8046   16.9926  -17.6465 N   0  0  0  0  0  0  0  0  0  0  0  0
  -30.6571   18.0084  -17.9591 N   0  0  0  0  0  0  0  0  0  0  0  0
  -30.8692   19.0927  -16.9955 C   0  0  0  0  0  0  0  0  0  0  0  0
  -31.2726   18.5740  -15.7322 O   0  0  0  0  0  0  0  0  0  0  0  0
  -30.3395   17.6194  -15.2822 C   0  0  1  0  0  0  0  0  0  0  0  0
  -31.0060   16.7877  -14.3517 O   0  0  0  0  0  0  0  0  0  0  0  0
  -30.5156   18.5400  -19.3139 C   0  0  0  0  0  0  0  0  0  0  0  0
  -31.5907   16.2425  -14.9064 H   0  0  0  0  0  0  0  0  0  0  0  0
  1  2  1  0  0  0  0
  2  3  2  0  0  0  0
  2  7  1  0  0  0  0
  3  4  1  0  0  0  0
  4  5  1  0  0  0  0
  4  9  1  0  0  0  0
  5  6  1  0  0  0  0
  6  7  1  0  0  0  0
  7  8  1  1  0  0  0
  8 10  1  0  0  0  0
M  END
>  <CHROM.0>
-59.91098986,-174.33535813,-67.54456803,-43.52312146,58.48487033,59.97619829
-67.28703917,-61.50283937,-169.11737517

>  <CHROM.1>
-54.41737268,-30.35200503,17.55920042,-16.58810232,-1.41373506,0.87599111
-1.20929999

>  <Name>
P59196469

>  <RI>
0

>  <Rbt.Current_Directory>
/home/fstefaniak/projects/zuza/docking/adenine/4TZX

>  <Rbt.Executable>
rbdock ($Id: //depot/dev/client3/rdock/2013.1/src/exe/rbdock.cxx#4 $)

>  <Rbt.Library>
libRbt.so (2013.1, Build901 2013/11/27)

>  <Rbt.Parameter_File>
/home/fstefaniak/progs/rDock//data/scripts/dock_solv.prm

>  <Rbt.Receptor>
4tzx.prm

>  <SCORE>
-48.5365

>  <SCORE.INTER>
-29.2546

>  <SCORE.INTER.CONST>
1

>  <SCORE.INTER.POLAR>
-3.13505

>  <SCORE.INTER.ROT>
0

>  <SCORE.INTER.SOLV>
10.4715

>  <SCORE.INTER.VDW>
-16.1434

>  <SCORE.INTER.norm>
-3.25051

>  <SCORE.INTRA>
-0.0922834

>  <SCORE.INTRA.DIHEDRAL>
-0.414232

>  <SCORE.INTRA.DIHEDRAL.0>
0.739456

>  <SCORE.INTRA.POLAR>
0

>  <SCORE.INTRA.POLAR.0>
0

>  <SCORE.INTRA.REPUL>
0

>  <SCORE.INTRA.REPUL.0>
0

>  <SCORE.INTRA.SOLV>
-0.0076891

>  <SCORE.INTRA.SOLV.lig_0>
-12.3365

>  <SCORE.INTRA.VDW>
0.118677

>  <SCORE.INTRA.VDW.0>
-0.132811

>  <SCORE.INTRA.norm>
-0.0102537

>  <SCORE.RESTR>
0

>  <SCORE.RESTR.CAVITY>
0

>  <SCORE.RESTR.norm>
0

>  <SCORE.SYSTEM>
-19.1896

>  <SCORE.SYSTEM.CONST>
0

>  <SCORE.SYSTEM.DIHEDRAL>
4.54059

>  <SCORE.SYSTEM.POLAR>
-3.03604

>  <SCORE.SYSTEM.SOLV>
-0.203878

>  <SCORE.SYSTEM.VDW>
-4.11851

>  <SCORE.SYSTEM.norm>
-2.13218

>  <SCORE.heavy>
9

>  <SCORE.norm>
-5.39294

$$$$
P59198805
 OpenBabel12072022113D
libRbt.so/2013.1/901 2013/11/27
 14 14  0  0  0  0  0  0  0  0999 V2000
  -27.6264   15.9802  -16.4493 C   0  0  0  0  0  0  0  0  0  0  0  0
  -28.5935   16.8462  -15.6831 C   0  0  0  0  0  0  0  0  0  0  0  0
  -28.4378   17.0506  -14.4798 O   0  0  0  0  0  0  0  0  0  0  0  0
  -29.6441   17.3834  -16.3929 N   0  0  0  0  0  0  0  0  0  0  0  0
  -29.7876   17.3361  -17.8430 C   0  0  0  0  0  0  0  0  0  0  0  0
  -30.7194   18.5092  -18.1766 C   0  0  2  0  0  0  0  0  0  0  0  0
  -31.6211   18.5571  -16.9458 C   0  0  0  0  0  0  0  0  0  0  0  0
  -30.6451   18.2854  -15.7920 C   0  0  1  0  0  0  0  0  0  0  0  0
  -31.3878   17.7100  -14.5743 C   0  0  0  0  0  0  0  0  0  0  0  0
  -30.5382   17.6078  -13.4360 O   0  0  0  0  0  0  0  0  0  0  0  0
  -31.4760   18.3760  -19.4143 N   0  0  0  0  0  0  0  0  0  0  0  0
  -30.2547   18.5234  -13.2134 H   0  0  0  0  0  0  0  0  0  0  0  0
  -31.7708   17.4097  -19.5530 H   0  0  0  0  0  0  0  0  0  0  0  0
  -30.8891   18.6143  -20.2133 H   0  0  0  0  0  0  0  0  0  0  0  0
  1  2  1  0  0  0  0
  2  3  2  0  0  0  0
  2  4  1  0  0  0  0
  4  5  1  0  0  0  0
  4  8  1  0  0  0  0
  5  6  1  0  0  0  0
  6  7  1  0  0  0  0
  6 11  1  6  0  0  0
  7  8  1  0  0  0  0
  8  9  1  1  0  0  0
  9 10  1  0  0  0  0
 10 12  1  0  0  0  0
 11 13  1  0  0  0  0
 11 14  1  0  0  0  0
M  END
>  <CHROM.0>
-46.21175128,-64.17536184,-67.35078903,-43.13101801,-56.36213188,-61.47076495
-67.32297749,-176.74950262,-168.99298802

>  <CHROM.1>
37.45313983,70.59338083,62.24315886,-30.04204472,17.59716142,-16.25724656
-1.09959644,0.49852183,-1.52600848

>  <Name>
P59198805

>  <RI>
0

>  <Rbt.Current_Directory>
/home/fstefaniak/projects/zuza/docking/adenine/4TZX

>  <Rbt.Executable>
rbdock ($Id: //depot/dev/client3/rdock/2013.1/src/exe/rbdock.cxx#4 $)

>  <Rbt.Library>
libRbt.so (2013.1, Build901 2013/11/27)

>  <Rbt.Parameter_File>
/home/fstefaniak/progs/rDock//data/scripts/dock_solv.prm

>  <Rbt.Receptor>
4tzx.prm

>  <SCORE>
-49.3119

>  <SCORE.INTER>
-32.1728

>  <SCORE.INTER.CONST>
1

>  <SCORE.INTER.POLAR>
-4.28962

>  <SCORE.INTER.ROT>
2

>  <SCORE.INTER.SOLV>
12.89

>  <SCORE.INTER.VDW>
-16.3798

>  <SCORE.INTER.norm>
-2.9248

>  <SCORE.INTRA>
3.59874

>  <SCORE.INTRA.DIHEDRAL>
-1.19662

>  <SCORE.INTRA.DIHEDRAL.0>
2.32319

>  <SCORE.INTRA.POLAR>
1

>  <SCORE.INTRA.POLAR.0>
-1

>  <SCORE.INTRA.REPUL>
0

>  <SCORE.INTRA.REPUL.0>
0

>  <SCORE.INTRA.SOLV>
0.1906

>  <SCORE.INTRA.SOLV.lig_0>
-14.8997

>  <SCORE.INTRA.VDW>
0.70175

>  <SCORE.INTRA.VDW.0>
-0.276693

>  <SCORE.INTRA.norm>
0.327158

>  <SCORE.RESTR>
0

>  <SCORE.RESTR.CAVITY>
0

>  <SCORE.RESTR.norm>
0

>  <SCORE.SYSTEM>
-20.7378

>  <SCORE.SYSTEM.CONST>
0

>  <SCORE.SYSTEM.DIHEDRAL>
5.45739

>  <SCORE.SYSTEM.POLAR>
-3.16624

>  <SCORE.SYSTEM.SOLV>
0.06904

>  <SCORE.SYSTEM.VDW>
-5.11323

>  <SCORE.SYSTEM.norm>
-1.88526

>  <SCORE.heavy>
11

>  <SCORE.norm>
-4.4829

$$$$
P59198805
 OpenBabel12072022113D
libRbt.so/2013.1/901 2013/11/27
 14 14  0  0  0  0  0  0  0  0999 V2000
  -27.5958   15.9463  -16.4322 C   0  0  0  0  0  0  0  0  0  0  0  0
  -28.5496   16.8288  -15.6683 C   0  0  0  0  0  0  0  0  0  0  0  0
  -28.3849   17.0421  -14.4677 O   0  0  0  0  0  0  0  0  0  0  0  0
  -29.5987   17.3705  -16.3767 N   0  0  0  0  0  0  0  0  0  0  0  0
  -29.7510   17.3120  -17.8256 C   0  0  0  0  0  0  0  0  0  0  0  0
  -30.6728   18.4917  -18.1642 C   0  0  2  0  0  0  0  0  0  0  0  0
  -31.5668   18.5595  -16.9288 C   0  0  0  0  0  0  0  0  0  0  0  0
  -30.5870   18.2879  -15.7782 C   0  0  1  0  0  0  0  0  0  0  0  0
  -31.3285   17.7308  -14.5513 C   0  0  0  0  0  0  0  0  0  0  0  0
  -30.4697   17.6155  -13.4212 O   0  0  0  0  0  0  0  0  0  0  0  0
  -31.4378   18.3554  -19.3964 N   0  0  0  0  0  0  0  0  0  0  0  0
  -30.2023   18.5304  -13.1766 H   0  0  0  0  0  0  0  0  0  0  0  0
  -31.7143   17.3847  -19.5422 H   0  0  0  0  0  0  0  0  0  0  0  0
  -30.8631   18.6135  -20.1981 H   0  0  0  0  0  0  0  0  0  0  0  0
  1  2  1  0  0  0  0
  2  3  2  0  0  0  0
  2  4  1  0  0  0  0
  4  5  1  0  0  0  0
  4  8  1  0  0  0  0
  5  6  1  0  0  0  0
  6  7  1  0  0  0  0
  6 11  1  6  0  0  0
  7  8  1  0  0  0  0
  8  9  1  1  0  0  0
  9 10  1  0  0  0  0
 10 12  1  0  0  0  0
 11 13  1  0  0  0  0
 11 14  1  0  0  0  0
M  END
>  <CHROM.0>
-45.42363565,-62.23037180,-62.08618669,-42.36049589,-58.54618412,-62.84122413
-66.48557681,-59.88370120,-168.52004798

>  <CHROM.1>
35.39763775,69.92766132,65.01538402,-29.99335675,17.58814137,-16.24111251
-1.09347148,0.50850383,-1.53608205

>  <Name>
P59198805

>  <RI>
0

>  <Rbt.Current_Directory>
/home/fstefaniak/projects/zuza/docking/adenine/4TZX

>  <Rbt.Executable>
rbdock ($Id: //depot/dev/client3/rdock/2013.1/src/exe/rbdock.cxx#4 $)

>  <Rbt.Library>
libRbt.so (2013.1, Build901 2013/11/27)

>  <Rbt.Parameter_File>
/home/fstefaniak/progs/rDock//data/scripts/dock_solv.prm

>  <Rbt.Receptor>
4tzx.prm

>  <SCORE>
-49.1952

>  <SCORE.INTER>
-32.3182

>  <SCORE.INTER.CONST>
1

>  <SCORE.INTER.POLAR>
-4.30393

>  <SCORE.INTER.ROT>
2

>  <SCORE.INTER.SOLV>
12.9008

>  <SCORE.INTER.VDW>
-16.4327

>  <SCORE.INTER.norm>
-2.93802

>  <SCORE.INTRA>
3.74399

>  <SCORE.INTRA.DIHEDRAL>
-1.02836

>  <SCORE.INTRA.DIHEDRAL.0>
2.32319

>  <SCORE.INTRA.POLAR>
1

>  <SCORE.INTRA.POLAR.0>
-1

>  <SCORE.INTRA.REPUL>
0

>  <SCORE.INTRA.REPUL.0>
0

>  <SCORE.INTRA.SOLV>
0.200115

>  <SCORE.INTRA.SOLV.lig_0>
-14.8997

>  <SCORE.INTRA.VDW>
0.758109

>  <SCORE.INTRA.VDW.0>
-0.276693

>  <SCORE.INTRA.norm>
0.340362

>  <SCORE.RESTR>
0

>  <SCORE.RESTR.CAVITY>
0

>  <SCORE.RESTR.norm>
0

>  <SCORE.SYSTEM>
-20.621

>  <SCORE.SYSTEM.CONST>
0

>  <SCORE.SYSTEM.DIHEDRAL>
5.30055

>  <SCORE.SYSTEM.POLAR>
-3.1849

>  <SCORE.SYSTEM.SOLV>
0.209542

>  <SCORE.SYSTEM.VDW>
-4.96772

>  <SCORE.SYSTEM.norm>
-1.87464

>  <SCORE.heavy>
11

>  <SCORE.norm>
-4.4723

$$$$
P59198805
 OpenBabel12072022113D
libRbt.so/2013.1/901 2013/11/27
 14 14  0  0  0  0  0  0  0  0999 V2000
  -27.5790   16.0041  -16.4436 C   0  0  0  0  0  0  0  0  0  0  0  0
  -28.5408   16.8671  -15.6676 C   0  0  0  0  0  0  0  0  0  0  0  0
  -28.3733   17.0720  -14.4659 O   0  0  0  0  0  0  0  0  0  0  0  0
  -29.6001   17.4012  -16.3664 N   0  0  0  0  0  0  0  0  0  0  0  0
  -29.7583   17.3536  -17.8150 C   0  0  0  0  0  0  0  0  0  0  0  0
  -30.6970   18.5240  -18.1390 C   0  0  2  0  0  0  0  0  0  0  0  0
  -31.5862   18.5691  -16.8990 C   0  0  0  0  0  0  0  0  0  0  0  0
  -30.5976   18.3002  -15.7553 C   0  0  1  0  0  0  0  0  0  0  0  0
  -31.3261   17.7226  -14.5301 C   0  0  0  0  0  0  0  0  0  0  0  0
  -30.4640   17.6208  -13.4012 O   0  0  0  0  0  0  0  0  0  0  0  0
  -31.4658   18.3885  -19.3690 N   0  0  0  0  0  0  0  0  0  0  0  0
  -30.1540   18.5329  -13.2007 H   0  0  0  0  0  0  0  0  0  0  0  0
  -31.7595   17.4213  -19.5045 H   0  0  0  0  0  0  0  0  0  0  0  0
  -30.8877   18.6283  -20.1739 H   0  0  0  0  0  0  0  0  0  0  0  0
  1  2  1  0  0  0  0
  2  3  2  0  0  0  0
  2  4  1  0  0  0  0
  4  5  1  0  0  0  0
  4  8  1  0  0  0  0
  5  6  1  0  0  0  0
  6  7  1  0  0  0  0
  6 11  1  6  0  0  0
  7  8  1  0  0  0  0
  8  9  1  1  0  0  0
  9 10  1  0  0  0  0
 10 12  1  0  0  0  0
 11 13  1  0  0  0  0
 11 14  1  0  0  0  0
M  END
>  <CHROM.0>
-45.84922744,-64.80051193,-64.13577054,-43.48531589,-55.69611313,-58.51388147
-68.92222968,-55.96178563,-168.85826710

>  <CHROM.1>
37.47387464,70.49475461,60.26255232,-29.99708644,17.61356884,-16.22695268
-1.08737766,0.49582472,-1.53137949

>  <Name>
P59198805

>  <RI>
0

>  <Rbt.Current_Directory>
/home/fstefaniak/projects/zuza/docking/adenine/4TZX

>  <Rbt.Executable>
rbdock ($Id: //depot/dev/client3/rdock/2013.1/src/exe/rbdock.cxx#4 $)

>  <Rbt.Library>
libRbt.so (2013.1, Build901 2013/11/27)

>  <Rbt.Parameter_File>
/home/fstefaniak/progs/rDock//data/scripts/dock_solv.prm

>  <Rbt.Receptor>
4tzx.prm

>  <SCORE>
-49.1632

>  <SCORE.INTER>
-32.1245

>  <SCORE.INTER.CONST>
1

>  <SCORE.INTER.POLAR>
-4.34032

>  <SCORE.INTER.ROT>
2

>  <SCORE.INTER.SOLV>
12.89

>  <SCORE.INTER.VDW>
-16.1786

>  <SCORE.INTER.norm>
-2.92041

>  <SCORE.INTRA>
3.60433

>  <SCORE.INTRA.DIHEDRAL>
-1.2294

>  <SCORE.INTRA.DIHEDRAL.0>
2.32319

>  <SCORE.INTRA.POLAR>
1

>  <SCORE.INTRA.POLAR.0>
-1

>  <SCORE.INTRA.REPUL>
0

>  <SCORE.INTRA.REPUL.0>
0

>  <SCORE.INTRA.SOLV>
0.193958

>  <SCORE.INTRA.SOLV.lig_0>
-14.8997

>  <SCORE.INTRA.VDW>
0.722056

>  <SCORE.INTRA.VDW.0>
-0.276693

>  <SCORE.INTRA.norm>
0.327667

>  <SCORE.RESTR>
0

>  <SCORE.RESTR.CAVITY>
0

>  <SCORE.RESTR.norm>
0

>  <SCORE.SYSTEM>
-20.6431

>  <SCORE.SYSTEM.CONST>
0

>  <SCORE.SYSTEM.DIHEDRAL>
5.48832

>  <SCORE.SYSTEM.POLAR>
-3.18199

>  <SCORE.SYSTEM.SOLV>
0.212097

>  <SCORE.SYSTEM.VDW>
-5.05554

>  <SCORE.SYSTEM.norm>
-1.87664

>  <SCORE.heavy>
11

>  <SCORE.norm>
-4.46938

$$$$
P59199259
 OpenBabel12072022113D
libRbt.so/2013.1/901 2013/11/27
 10 10  0  0  0  0  0  0  0  0999 V2000
  -28.8004   15.3031  -16.0159 C   0  0  0  0  0  0  0  0  0  0  0  0
  -29.7045   16.3720  -16.5542 C   0  0  0  0  0  0  0  0  0  0  0  0
  -29.5013   16.9659  -17.6083 O   0  0  0  0  0  0  0  0  0  0  0  0
  -30.8792   16.7314  -15.7198 C   0  0  1  0  0  0  0  0  0  0  0  0
  -30.8510   17.9912  -14.8824 C   0  0  0  0  0  0  0  0  0  0  0  0
  -31.7941   17.8885  -16.0551 C   0  0  1  0  0  0  0  0  0  0  0  0
  -31.6869   18.7777  -17.2430 C   0  0  0  0  0  0  0  0  0  0  0  0
  -30.7852   19.5985  -17.3088 O   0  0  0  0  0  0  0  0  0  0  0  0
  -32.5861   18.6085  -18.2347 O   0  0  0  0  0  0  0  0  0  0  0  0
  -32.4783   19.2117  -19.0066 H   0  0  0  0  0  0  0  0  0  0  0  0
  1  2  1  0  0  0  0
  2  3  2  0  0  0  0
  4  2  1  6  0  0  0
  4  5  1  0  0  0  0
  4  6  1  0  0  0  0
  5  6  1  0  0  0  0
  6  7  1  6  0  0  0
  7  8  2  0  0  0  0
  7  9  1  0  0  0  0
  9 10  1  0  0  0  0
M  END
>  <CHROM.0>
-60.13059773,-177.21785172,-65.01053198,-43.34013430,-53.30997840,-63.53174820
-68.40674653,-61.70227738,-168.48002101

>  <CHROM.1>
101.95832974,-72.14216384,-179.59021444,-30.73266141,17.61863628,-16.69209679
-0.52936270,0.78451528,-1.31654959

>  <Name>
P59199259

>  <RI>
0

>  <Rbt.Current_Directory>
/home/fstefaniak/projects/zuza/docking/adenine/4TZX

>  <Rbt.Executable>
rbdock ($Id: //depot/dev/client3/rdock/2013.1/src/exe/rbdock.cxx#4 $)

>  <Rbt.Library>
libRbt.so (2013.1, Build901 2013/11/27)

>  <Rbt.Parameter_File>
/home/fstefaniak/progs/rDock//data/scripts/dock_solv.prm

>  <Rbt.Receptor>
4tzx.prm

>  <SCORE>
-46.9587

>  <SCORE.INTER>
-26.158

>  <SCORE.INTER.CONST>
1

>  <SCORE.INTER.POLAR>
-3.16075

>  <SCORE.INTER.ROT>
2

>  <SCORE.INTER.SOLV>
9.55289

>  <SCORE.INTER.VDW>
-15.0205

>  <SCORE.INTER.norm>
-2.90644

>  <SCORE.INTRA>
0.22778

>  <SCORE.INTRA.DIHEDRAL>
-1.05303

>  <SCORE.INTRA.DIHEDRAL.0>
5.08957

>  <SCORE.INTRA.POLAR>
0.46549

>  <SCORE.INTRA.POLAR.0>
-0.46549

>  <SCORE.INTRA.REPUL>
0

>  <SCORE.INTRA.REPUL.0>
0

>  <SCORE.INTRA.SOLV>
0.130847

>  <SCORE.INTRA.SOLV.lig_0>
-9.25289

>  <SCORE.INTRA.VDW>
-0.893795

>  <SCORE.INTRA.VDW.0>
0.104697

>  <SCORE.INTRA.norm>
0.0253089

>  <SCORE.RESTR>
0

>  <SCORE.RESTR.CAVITY>
0

>  <SCORE.RESTR.norm>
0

>  <SCORE.SYSTEM>
-21.0284

>  <SCORE.SYSTEM.CONST>
0

>  <SCORE.SYSTEM.DIHEDRAL>
4.69614

>  <SCORE.SYSTEM.POLAR>
-3.06164

>  <SCORE.SYSTEM.SOLV>
0.151935

>  <SCORE.SYSTEM.VDW>
-5.42954

>  <SCORE.SYSTEM.norm>
-2.33649

>  <SCORE.heavy>
9

>  <SCORE.norm>
-5.21763

$$$$
P59199259
 OpenBabel12072022113D
libRbt.so/2013.1/901 2013/11/27
 10 10  0  0  0  0  0  0  0  0999 V2000
  -28.8910   15.2204  -15.9819 C   0  0  0  0  0  0  0  0  0  0  0  0
  -29.7038   16.3677  -16.5043 C   0  0  0  0  0  0  0  0  0  0  0  0
  -29.4094   17.0064  -17.5095 O   0  0  0  0  0  0  0  0  0  0  0  0
  -30.9027   16.7471  -15.7143 C   0  0  1  0  0  0  0  0  0  0  0  0
  -30.8975   18.0253  -14.9048 C   0  0  0  0  0  0  0  0  0  0  0  0
  -31.8047   17.8976  -16.1031 C   0  0  1  0  0  0  0  0  0  0  0  0
  -31.6598   18.7598  -17.3068 C   0  0  0  0  0  0  0  0  0  0  0  0
  -30.7022   19.5112  -17.4048 O   0  0  0  0  0  0  0  0  0  0  0  0
  -32.5911   18.6431  -18.2760 O   0  0  0  0  0  0  0  0  0  0  0  0
  -32.4570   19.2259  -19.0595 H   0  0  0  0  0  0  0  0  0  0  0  0
  1  2  1  0  0  0  0
  2  3  2  0  0  0  0
  4  2  1  6  0  0  0
  4  5  1  0  0  0  0
  4  6  1  0  0  0  0
  5  6  1  0  0  0  0
  6  7  1  6  0  0  0
  7  8  2  0  0  0  0
  7  9  1  0  0  0  0
  9 10  1  0  0  0  0
M  END
>  <CHROM.0>
-58.86124742,-179.49341918,-61.24029859,-44.07062470,-58.33458631,-64.94836908
-65.68172502,-60.84670834,-168.43322994

>  <CHROM.1>
107.64905359,-67.03059015,-179.57940443,-30.72787167,17.61168408,-16.70140655
-0.61435413,0.74954224,-1.23354503

>  <Name>
P59199259

>  <RI>
0

>  <Rbt.Current_Directory>
/home/fstefaniak/projects/zuza/docking/adenine/4TZX

>  <Rbt.Executable>
rbdock ($Id: //depot/dev/client3/rdock/2013.1/src/exe/rbdock.cxx#4 $)

>  <Rbt.Library>
libRbt.so (2013.1, Build901 2013/11/27)

>  <Rbt.Parameter_File>
/home/fstefaniak/progs/rDock//data/scripts/dock_solv.prm

>  <Rbt.Receptor>
4tzx.prm

>  <SCORE>
-46.9398

>  <SCORE.INTER>
-26.4586

>  <SCORE.INTER.CONST>
1

>  <SCORE.INTER.POLAR>
-3.1982

>  <SCORE.INTER.ROT>
2

>  <SCORE.INTER.SOLV>
9.4559

>  <SCORE.INTER.VDW>
-15.0637

>  <SCORE.INTER.norm>
-2.93984

>  <SCORE.INTRA>
0.414391

>  <SCORE.INTRA.DIHEDRAL>
-0.765402

>  <SCORE.INTRA.DIHEDRAL.0>
5.08957

>  <SCORE.INTRA.POLAR>
0.46549

>  <SCORE.INTRA.POLAR.0>
-0.46549

>  <SCORE.INTRA.REPUL>
0

>  <SCORE.INTRA.REPUL.0>
0

>  <SCORE.INTRA.SOLV>
0.14123

>  <SCORE.INTRA.SOLV.lig_0>
-9.25289

>  <SCORE.INTRA.VDW>
-0.856188

>  <SCORE.INTRA.VDW.0>
0.104697

>  <SCORE.INTRA.norm>
0.0460434

>  <SCORE.RESTR>
0

>  <SCORE.RESTR.CAVITY>
0

>  <SCORE.RESTR.norm>
0

>  <SCORE.SYSTEM>
-20.8956

>  <SCORE.SYSTEM.CONST>
0

>  <SCORE.SYSTEM.DIHEDRAL>
4.14755

>  <SCORE.SYSTEM.POLAR>
-3.03735

>  <SCORE.SYSTEM.SOLV>
0.161977

>  <SCORE.SYSTEM.VDW>
-5.24244

>  <SCORE.SYSTEM.norm>
-2.32174

>  <SCORE.heavy>
9

>  <SCORE.norm>
-5.21554

$$$$
P59199259
 OpenBabel12072022113D
libRbt.so/2013.1/901 2013/11/27
 10 10  0  0  0  0  0  0  0  0999 V2000
  -28.8772   15.1770  -16.0299 C   0  0  0  0  0  0  0  0  0  0  0  0
  -29.6597   16.3664  -16.5022 C   0  0  0  0  0  0  0  0  0  0  0  0
  -29.3523   17.0353  -17.4836 O   0  0  0  0  0  0  0  0  0  0  0  0
  -30.8432   16.7484  -15.6906 C   0  0  1  0  0  0  0  0  0  0  0  0
  -30.8224   18.0289  -14.8850 C   0  0  0  0  0  0  0  0  0  0  0  0
  -31.7523   17.8979  -16.0654 C   0  0  1  0  0  0  0  0  0  0  0  0
  -31.6302   18.7566  -17.2741 C   0  0  0  0  0  0  0  0  0  0  0  0
  -30.6844   19.5212  -17.3838 O   0  0  0  0  0  0  0  0  0  0  0  0
  -32.5680   18.6222  -18.2347 O   0  0  0  0  0  0  0  0  0  0  0  0
  -32.4554   19.2113  -19.0168 H   0  0  0  0  0  0  0  0  0  0  0  0
  1  2  1  0  0  0  0
  2  3  2  0  0  0  0
  4  2  1  6  0  0  0
  4  5  1  0  0  0  0
  4  6  1  0  0  0  0
  5  6  1  0  0  0  0
  6  7  1  6  0  0  0
  7  8  2  0  0  0  0
  7  9  1  0  0  0  0
  9 10  1  0  0  0  0
M  END
>  <CHROM.0>
-58.86418667,179.10218040,-72.66498541,-43.98997539,-56.95731653,-60.44610442
-171.44710559,-60.96503713,-169.33599344

>  <CHROM.1>
110.64259250,-68.05965280,179.68611566,-30.68749740,17.60887813,-16.68402453
-0.59254304,0.76181032,-1.24563749

>  <Name>
P59199259

>  <RI>
0

>  <Rbt.Current_Directory>
/home/fstefaniak/projects/zuza/docking/adenine/4TZX

>  <Rbt.Executable>
rbdock ($Id: //depot/dev/client3/rdock/2013.1/src/exe/rbdock.cxx#4 $)

>  <Rbt.Library>
libRbt.so (2013.1, Build901 2013/11/27)

>  <Rbt.Parameter_File>
/home/fstefaniak/progs/rDock//data/scripts/dock_solv.prm

>  <Rbt.Receptor>
4tzx.prm

>  <SCORE>
-46.3426

>  <SCORE.INTER>
-26.4154

>  <SCORE.INTER.CONST>
1

>  <SCORE.INTER.POLAR>
-3.164

>  <SCORE.INTER.ROT>
2

>  <SCORE.INTER.SOLV>
9.42429

>  <SCORE.INTER.VDW>
-15.1384

>  <SCORE.INTER.norm>
-2.93505

>  <SCORE.INTRA>
0.439508

>  <SCORE.INTRA.DIHEDRAL>
-0.715977

>  <SCORE.INTRA.DIHEDRAL.0>
5.08957

>  <SCORE.INTRA.POLAR>
0.46549

>  <SCORE.INTRA.POLAR.0>
-0.46549

>  <SCORE.INTRA.REPUL>
0

>  <SCORE.INTRA.REPUL.0>
0

>  <SCORE.INTRA.SOLV>
0.142003

>  <SCORE.INTRA.SOLV.lig_0>
-9.25289

>  <SCORE.INTRA.VDW>
-0.856169

>  <SCORE.INTRA.VDW.0>
0.104697

>  <SCORE.INTRA.norm>
0.0488342

>  <SCORE.RESTR>
0

>  <SCORE.RESTR.CAVITY>
0

>  <SCORE.RESTR.norm>
0

>  <SCORE.SYSTEM>
-20.3666

>  <SCORE.SYSTEM.CONST>
0

>  <SCORE.SYSTEM.DIHEDRAL>
4.87682

>  <SCORE.SYSTEM.POLAR>
-3.00838

>  <SCORE.SYSTEM.SOLV>
0.135217

>  <SCORE.SYSTEM.VDW>
-5.22052

>  <SCORE.SYSTEM.norm>
-2.26296

>  <SCORE.heavy>
9

>  <SCORE.norm>
-5.14917

$$$$
P59204138
 OpenBabel12072022113D
libRbt.so/2013.1/901 2013/11/27
 10 10  0  0  0  0  0  0  0  0999 V2000
  -31.4357   18.3256  -13.2116 C   0  0  0  0  0  0  0  0  0  0  0  0
  -31.5591   18.2874  -14.6327 O   0  0  0  0  0  0  0  0  0  0  0  0
  -30.9330   17.2307  -15.2161 C   0  0  0  0  0  0  0  0  0  0  0  0
  -30.3971   16.3135  -14.6051 O   0  0  0  0  0  0  0  0  0  0  0  0
  -30.9844   17.3598  -16.5956 N   0  0  0  0  0  0  0  0  0  0  0  0
  -29.8060   17.1596  -17.3976 C   0  0  0  0  0  0  0  0  0  0  0  0
  -30.4099   18.5100  -17.2365 C   0  0  1  0  0  0  0  0  0  0  0  0
  -31.1664   19.1805  -18.3354 C   0  0  0  0  0  0  0  0  0  0  0  0
  -32.5589   18.8975  -18.2561 O   0  0  0  0  0  0  0  0  0  0  0  0
  -32.9737   19.3727  -18.9997 H   0  0  0  0  0  0  0  0  0  0  0  0
  1  2  1  0  0  0  0
  2  3  1  0  0  0  0
  3  4  2  0  0  0  0
  3  5  1  0  0  0  0
  5  6  1  0  0  0  0
  5  7  1  0  0  0  0
  6  7  1  0  0  0  0
  7  8  1  6  0  0  0
  8  9  1  0  0  0  0
  9 10  1  0  0  0  0
M  END
>  <CHROM.0>
-57.34690978,-59.98614332,-65.07193382,-43.22220228,-172.12320732,-60.42461024
-65.38896435,-58.18328306,-168.78786873

>  <CHROM.1>
5.90758635,132.98161717,22.36211668,179.71657984,-31.07368584,17.93484244
-16.15549106,1.43318028,-0.81089766,1.75563735

>  <Name>
P59204138

>  <RI>
0

>  <Rbt.Current_Directory>
/home/fstefaniak/projects/zuza/docking/adenine/4TZX

>  <Rbt.Executable>
rbdock ($Id: //depot/dev/client3/rdock/2013.1/src/exe/rbdock.cxx#4 $)

>  <Rbt.Library>
libRbt.so (2013.1, Build901 2013/11/27)

>  <Rbt.Parameter_File>
/home/fstefaniak/progs/rDock//data/scripts/dock_solv.prm

>  <Rbt.Receptor>
4tzx.prm

>  <SCORE>
-47.7567

>  <SCORE.INTER>
-25.5733

>  <SCORE.INTER.CONST>
1

>  <SCORE.INTER.POLAR>
-3.84503

>  <SCORE.INTER.ROT>
3

>  <SCORE.INTER.SOLV>
10.858

>  <SCORE.INTER.VDW>
-13.4514

>  <SCORE.INTER.norm>
-2.84147

>  <SCORE.INTRA>
-0.98001

>  <SCORE.INTRA.DIHEDRAL>
-1.06816

>  <SCORE.INTRA.DIHEDRAL.0>
4.1172

>  <SCORE.INTRA.POLAR>
0.109623

>  <SCORE.INTRA.POLAR.0>
-0.109623

>  <SCORE.INTRA.REPUL>
0

>  <SCORE.INTRA.REPUL.0>
0

>  <SCORE.INTRA.SOLV>
-0.193627

>  <SCORE.INTRA.SOLV.lig_0>
-13.1019

>  <SCORE.INTRA.VDW>
-0.721834

>  <SCORE.INTRA.VDW.0>
1.99582

>  <SCORE.INTRA.norm>
-0.10889

>  <SCORE.RESTR>
0

>  <SCORE.RESTR.CAVITY>
0

>  <SCORE.RESTR.norm>
0

>  <SCORE.SYSTEM>
-21.2034

>  <SCORE.SYSTEM.CONST>
0

>  <SCORE.SYSTEM.DIHEDRAL>
4.51732

>  <SCORE.SYSTEM.POLAR>
-3.0687

>  <SCORE.SYSTEM.SOLV>
0.0146324

>  <SCORE.SYSTEM.VDW>
-5.41726

>  <SCORE.SYSTEM.norm>
-2.35593

>  <SCORE.heavy>
9

>  <SCORE.norm>
-5.3063

$$$$
P59204138
 OpenBabel12072022113D
libRbt.so/2013.1/901 2013/11/27
 10 10  0  0  0  0  0  0  0  0999 V2000
  -31.4878   18.3106  -13.1857 C   0  0  0  0  0  0  0  0  0  0  0  0
  -31.5989   18.2755  -14.6079 O   0  0  0  0  0  0  0  0  0  0  0  0
  -30.9242   17.2497  -15.1923 C   0  0  0  0  0  0  0  0  0  0  0  0
  -30.3568   16.3509  -14.5822 O   0  0  0  0  0  0  0  0  0  0  0  0
  -30.9676   17.3864  -16.5713 N   0  0  0  0  0  0  0  0  0  0  0  0
  -29.7823   17.2017  -17.3666 C   0  0  0  0  0  0  0  0  0  0  0  0
  -30.3995   18.5456  -17.2016 C   0  0  1  0  0  0  0  0  0  0  0  0
  -31.1547   19.2157  -18.3015 C   0  0  0  0  0  0  0  0  0  0  0  0
  -32.5496   18.9472  -18.2133 O   0  0  0  0  0  0  0  0  0  0  0  0
  -32.9599   19.3978  -18.9745 H   0  0  0  0  0  0  0  0  0  0  0  0
  1  2  1  0  0  0  0
  2  3  1  0  0  0  0
  3  4  2  0  0  0  0
  3  5  1  0  0  0  0
  5  6  1  0  0  0  0
  5  7  1  0  0  0  0
  6  7  1  0  0  0  0
  7  8  1  6  0  0  0
  8  9  1  0  0  0  0
  9 10  1  0  0  0  0
M  END
>  <CHROM.0>
-57.28546558,-63.18287517,-61.18017410,-42.66099312,-56.87072414,-175.22471958
-67.67486281,-63.38114535,-168.89168459

>  <CHROM.1>
6.06716912,134.83242669,23.84507742,-178.52319789,-31.07093512,17.95889279
-16.12609500,1.44703694,-0.78514742,1.77730866

>  <Name>
P59204138

>  <RI>
0

>  <Rbt.Current_Directory>
/home/fstefaniak/projects/zuza/docking/adenine/4TZX

>  <Rbt.Executable>
rbdock ($Id: //depot/dev/client3/rdock/2013.1/src/exe/rbdock.cxx#4 $)

>  <Rbt.Library>
libRbt.so (2013.1, Build901 2013/11/27)

>  <Rbt.Parameter_File>
/home/fstefaniak/progs/rDock//data/scripts/dock_solv.prm

>  <Rbt.Receptor>
4tzx.prm

>  <SCORE>
-47.5651

>  <SCORE.INTER>
-25.7304

>  <SCORE.INTER.CONST>
1

>  <SCORE.INTER.POLAR>
-3.83734

>  <SCORE.INTER.ROT>
3

>  <SCORE.INTER.SOLV>
10.864

>  <SCORE.INTER.VDW>
-13.5838

>  <SCORE.INTER.norm>
-2.85894

>  <SCORE.INTRA>
-0.96033

>  <SCORE.INTRA.DIHEDRAL>
-0.99189

>  <SCORE.INTRA.DIHEDRAL.0>
4.1172

>  <SCORE.INTRA.POLAR>
0.109623

>  <SCORE.INTRA.POLAR.0>
-0.109623

>  <SCORE.INTRA.REPUL>
0

>  <SCORE.INTRA.REPUL.0>
0

>  <SCORE.INTRA.SOLV>
-0.191866

>  <SCORE.INTRA.SOLV.lig_0>
-13.1019

>  <SCORE.INTRA.VDW>
-0.741169

>  <SCORE.INTRA.VDW.0>
1.99582

>  <SCORE.INTRA.norm>
-0.106703

>  <SCORE.RESTR>
0

>  <SCORE.RESTR.CAVITY>
0

>  <SCORE.RESTR.norm>
0

>  <SCORE.SYSTEM>
-20.8743

>  <SCORE.SYSTEM.CONST>
0

>  <SCORE.SYSTEM.DIHEDRAL>
4.56726

>  <SCORE.SYSTEM.POLAR>
-3.08262

>  <SCORE.SYSTEM.SOLV>
0.0741316

>  <SCORE.SYSTEM.VDW>
-5.18795

>  <SCORE.SYSTEM.norm>
-2.31937

>  <SCORE.heavy>
9

>  <SCORE.norm>
-5.28501

$$$$
P59204138
 OpenBabel12072022113D
libRbt.so/2013.1/901 2013/11/27
 10 10  0  0  0  0  0  0  0  0999 V2000
  -31.4708   18.3040  -13.2014 C   0  0  0  0  0  0  0  0  0  0  0  0
  -31.5296   18.3193  -14.6271 O   0  0  0  0  0  0  0  0  0  0  0  0
  -30.9181   17.2590  -15.2194 C   0  0  0  0  0  0  0  0  0  0  0  0
  -30.3888   16.3329  -14.6161 O   0  0  0  0  0  0  0  0  0  0  0  0
  -30.9755   17.3958  -16.5979 N   0  0  0  0  0  0  0  0  0  0  0  0
  -29.7951   17.2264  -17.4039 C   0  0  0  0  0  0  0  0  0  0  0  0
  -30.4277   18.5624  -17.2326 C   0  0  1  0  0  0  0  0  0  0  0  0
  -31.2012   19.2234  -18.3254 C   0  0  0  0  0  0  0  0  0  0  0  0
  -32.5674   18.8252  -18.3098 O   0  0  0  0  0  0  0  0  0  0  0  0
  -32.5755   17.8787  -18.5441 H   0  0  0  0  0  0  0  0  0  0  0  0
  1  2  1  0  0  0  0
  2  3  1  0  0  0  0
  3  4  2  0  0  0  0
  3  5  1  0  0  0  0
  5  6  1  0  0  0  0
  5  7  1  0  0  0  0
  6  7  1  0  0  0  0
  7  8  1  6  0  0  0
  8  9  1  0  0  0  0
  9 10  1  0  0  0  0
M  END
>  <CHROM.0>
-61.96607622,-57.32728314,-66.83904260,-42.73962524,-60.68098222,-59.58533865
-69.49192094,-60.61946221,-168.51648858

>  <CHROM.1>
2.14611077,131.11296241,17.67337761,-66.91296007,-31.07307408,17.94172242
-16.15776948,1.44324391,-0.80055619,1.74743813

>  <Name>
P59204138

>  <RI>
0

>  <Rbt.Current_Directory>
/home/fstefaniak/projects/zuza/docking/adenine/4TZX

>  <Rbt.Executable>
rbdock ($Id: //depot/dev/client3/rdock/2013.1/src/exe/rbdock.cxx#4 $)

>  <Rbt.Library>
libRbt.so (2013.1, Build901 2013/11/27)

>  <Rbt.Parameter_File>
/home/fstefaniak/progs/rDock//data/scripts/dock_solv.prm

>  <Rbt.Receptor>
4tzx.prm

>  <SCORE>
-47.49

>  <SCORE.INTER>
-25.5226

>  <SCORE.INTER.CONST>
1

>  <SCORE.INTER.POLAR>
-4.07525

>  <SCORE.INTER.ROT>
3

>  <SCORE.INTER.SOLV>
10.7283

>  <SCORE.INTER.VDW>
-12.607

>  <SCORE.INTER.norm>
-2.83585

>  <SCORE.INTRA>
-0.906396

>  <SCORE.INTRA.DIHEDRAL>
-1.21253

>  <SCORE.INTRA.DIHEDRAL.0>
4.1172

>  <SCORE.INTRA.POLAR>
0.109623

>  <SCORE.INTRA.POLAR.0>
-0.109623

>  <SCORE.INTRA.REPUL>
0

>  <SCORE.INTRA.REPUL.0>
0

>  <SCORE.INTRA.SOLV>
-0.106677

>  <SCORE.INTRA.SOLV.lig_0>
-13.1019

>  <SCORE.INTRA.VDW>
-0.61951

>  <SCORE.INTRA.VDW.0>
1.99582

>  <SCORE.INTRA.norm>
-0.100711

>  <SCORE.RESTR>
0

>  <SCORE.RESTR.CAVITY>
0

>  <SCORE.RESTR.norm>
0

>  <SCORE.SYSTEM>
-21.061

>  <SCORE.SYSTEM.CONST>
0

>  <SCORE.SYSTEM.DIHEDRAL>
4.70929

>  <SCORE.SYSTEM.POLAR>
-3.04282

>  <SCORE.SYSTEM.SOLV>
0.175701

>  <SCORE.SYSTEM.VDW>
-5.52623

>  <SCORE.SYSTEM.norm>
-2.34011

>  <SCORE.heavy>
9

>  <SCORE.norm>
-5.27667

$$$$
P59204206
 OpenBabel12072022113D
libRbt.so/2013.1/901 2013/11/27
 10 10  0  0  0  0  0  0  0  0999 V2000
  -30.1371   17.9466  -17.7835 C   0  0  0  0  0  0  0  0  0  0  0  0
  -31.0322   19.0909  -17.4834 C   0  0  0  0  0  0  0  0  0  0  0  0
  -31.3058   17.7792  -16.9679 N   0  0  0  0  0  0  0  0  0  0  0  0
  -31.1796   17.5224  -15.6029 C   0  0  0  0  0  0  0  0  0  0  0  0
  -31.5329   18.2733  -14.7003 O   0  0  0  0  0  0  0  0  0  0  0  0
  -30.5977   16.2941  -15.3874 N   0  0  0  0  0  0  0  0  0  0  0  0
  -29.1565   16.1509  -15.3179 C   0  0  0  0  0  0  0  0  0  0  0  0
  -28.6280   15.0666  -16.2481 C   0  0  0  0  0  0  0  0  0  0  0  0
  -27.2778   14.9661  -16.0853 F   0  0  0  0  0  0  0  0  0  0  0  0
  -31.1466   15.5043  -15.7004 H   0  0  0  0  0  0  0  0  0  0  0  0
  1  2  1  0  0  0  0
  1  3  1  0  0  0  0
  2  3  1  0  0  0  0
  3  4  1  0  0  0  0
  4  5  2  0  0  0  0
  4  6  1  0  0  0  0
  6  7  1  0  0  0  0
  6 10  1  0  0  0  0
  7  8  1  0  0  0  0
  8  9  1  0  0  0  0
M  END
>  <CHROM.0>
-56.44943848,-61.98047536,-46.42414110,-43.90755129,-173.79930757,-68.22176661
-65.19807358,-57.93774630,-168.83693649

>  <CHROM.1>
114.23501672,87.94869489,-128.07247216,-177.84226009,-30.00091039,16.93266408
-16.15488251,-2.71012527,-0.67460485,2.06517466

>  <Name>
P59204206

>  <RI>
0

>  <Rbt.Current_Directory>
/home/fstefaniak/projects/zuza/docking/adenine/4TZX

>  <Rbt.Executable>
rbdock ($Id: //depot/dev/client3/rdock/2013.1/src/exe/rbdock.cxx#4 $)

>  <Rbt.Library>
libRbt.so (2013.1, Build901 2013/11/27)

>  <Rbt.Parameter_File>
/home/fstefaniak/progs/rDock//data/scripts/dock_solv.prm

>  <Rbt.Receptor>
4tzx.prm

>  <SCORE>
-41.3325

>  <SCORE.INTER>
-20.9871

>  <SCORE.INTER.CONST>
1

>  <SCORE.INTER.POLAR>
-2.62553

>  <SCORE.INTER.ROT>
4

>  <SCORE.INTER.SOLV>
10.196

>  <SCORE.INTER.VDW>
-14.905

>  <SCORE.INTER.norm>
-2.3319

>  <SCORE.INTRA>
0.476715

>  <SCORE.INTRA.DIHEDRAL>
1.4514

>  <SCORE.INTRA.DIHEDRAL.0>
1.45854

>  <SCORE.INTRA.POLAR>
0

>  <SCORE.INTRA.POLAR.0>
0

>  <SCORE.INTRA.REPUL>
0

>  <SCORE.INTRA.REPUL.0>
0

>  <SCORE.INTRA.SOLV>
-0.127297

>  <SCORE.INTRA.SOLV.lig_0>
-12.7666

>  <SCORE.INTRA.VDW>
-0.185338

>  <SCORE.INTRA.VDW.0>
-0.17083

>  <SCORE.INTRA.norm>
0.0529683

>  <SCORE.RESTR>
0

>  <SCORE.RESTR.CAVITY>
0

>  <SCORE.RESTR.norm>
0

>  <SCORE.SYSTEM>
-20.8221

>  <SCORE.SYSTEM.CONST>
0

>  <SCORE.SYSTEM.DIHEDRAL>
5.3456

>  <SCORE.SYSTEM.POLAR>
-3.17244

>  <SCORE.SYSTEM.SOLV>
0.0206589

>  <SCORE.SYSTEM.VDW>
-5.09536

>  <SCORE.SYSTEM.norm>
-2.31357

>  <SCORE.heavy>
9

>  <SCORE.norm>
-4.5925

$$$$
P59204206
 OpenBabel12072022113D
libRbt.so/2013.1/901 2013/11/27
 10 10  0  0  0  0  0  0  0  0999 V2000
  -30.0851   17.9483  -17.7423 C   0  0  0  0  0  0  0  0  0  0  0  0
  -30.9700   19.1025  -17.4506 C   0  0  0  0  0  0  0  0  0  0  0  0
  -31.2736   17.7902  -16.9539 N   0  0  0  0  0  0  0  0  0  0  0  0
  -31.1810   17.5187  -15.5890 C   0  0  0  0  0  0  0  0  0  0  0  0
  -31.5477   18.2642  -14.6871 O   0  0  0  0  0  0  0  0  0  0  0  0
  -30.6157   16.2829  -15.3727 N   0  0  0  0  0  0  0  0  0  0  0  0
  -29.1770   16.1225  -15.2894 C   0  0  0  0  0  0  0  0  0  0  0  0
  -28.6489   15.0535  -16.2374 C   0  0  0  0  0  0  0  0  0  0  0  0
  -27.3170   14.8765  -16.0038 F   0  0  0  0  0  0  0  0  0  0  0  0
  -31.1706   15.5008  -15.6943 H   0  0  0  0  0  0  0  0  0  0  0  0
  1  2  1  0  0  0  0
  1  3  1  0  0  0  0
  2  3  1  0  0  0  0
  3  4  1  0  0  0  0
  4  5  2  0  0  0  0
  4  6  1  0  0  0  0
  6  7  1  0  0  0  0
  6 10  1  0  0  0  0
  7  8  1  0  0  0  0
  8  9  1  0  0  0  0
M  END
>  <CHROM.0>
-61.23606986,52.61051149,-62.25444329,-42.43783938,-58.45402152,-54.03826084
-66.90548447,-59.35082313,-169.03995425

>  <CHROM.1>
114.52232810,87.13486961,-127.01291497,-174.16202034,-29.99941847,16.91530414
-16.12519539,-2.68055990,-0.68082804,2.09198233

>  <Name>
P59204206

>  <RI>
0

>  <Rbt.Current_Directory>
/home/fstefaniak/projects/zuza/docking/adenine/4TZX

>  <Rbt.Executable>
rbdock ($Id: //depot/dev/client3/rdock/2013.1/src/exe/rbdock.cxx#4 $)

>  <Rbt.Library>
libRbt.so (2013.1, Build901 2013/11/27)

>  <Rbt.Parameter_File>
/home/fstefaniak/progs/rDock//data/scripts/dock_solv.prm

>  <Rbt.Receptor>
4tzx.prm

>  <SCORE>
-40.6676

>  <SCORE.INTER>
-20.9888

>  <SCORE.INTER.CONST>
1

>  <SCORE.INTER.POLAR>
-2.69708

>  <SCORE.INTER.ROT>
4

>  <SCORE.INTER.SOLV>
10.1522

>  <SCORE.INTER.VDW>
-14.653

>  <SCORE.INTER.norm>
-2.33209

>  <SCORE.INTRA>
0.557828

>  <SCORE.INTRA.DIHEDRAL>
1.54264

>  <SCORE.INTRA.DIHEDRAL.0>
1.45854

>  <SCORE.INTRA.POLAR>
0

>  <SCORE.INTRA.POLAR.0>
0

>  <SCORE.INTRA.REPUL>
0

>  <SCORE.INTRA.REPUL.0>
0

>  <SCORE.INTRA.SOLV>
-0.121076

>  <SCORE.INTRA.SOLV.lig_0>
-12.7666

>  <SCORE.INTRA.VDW>
-0.152955

>  <SCORE.INTRA.VDW.0>
-0.17083

>  <SCORE.INTRA.norm>
0.0619809

>  <SCORE.RESTR>
0

>  <SCORE.RESTR.CAVITY>
0

>  <SCORE.RESTR.norm>
0

>  <SCORE.SYSTEM>
-20.2366

>  <SCORE.SYSTEM.CONST>
0

>  <SCORE.SYSTEM.DIHEDRAL>
4.71174

>  <SCORE.SYSTEM.POLAR>
-3.10404

>  <SCORE.SYSTEM.SOLV>
0.293149

>  <SCORE.SYSTEM.VDW>
-4.81257

>  <SCORE.SYSTEM.norm>
-2.24851

>  <SCORE.heavy>
9

>  <SCORE.norm>
-4.51862

$$$$
P59204206
 OpenBabel12072022113D
libRbt.so/2013.1/901 2013/11/27
 10 10  0  0  0  0  0  0  0  0999 V2000
  -30.8591   19.2209  -17.2579 C   0  0  0  0  0  0  0  0  0  0  0  0
  -30.3258   17.9446  -17.7938 C   0  0  0  0  0  0  0  0  0  0  0  0
  -30.2260   18.2629  -16.3975 N   0  0  0  0  0  0  0  0  0  0  0  0
  -30.9781   17.5533  -15.4615 C   0  0  0  0  0  0  0  0  0  0  0  0
  -31.9093   18.0054  -14.8043 O   0  0  0  0  0  0  0  0  0  0  0  0
  -30.5381   16.2530  -15.3640 N   0  0  0  0  0  0  0  0  0  0  0  0
  -29.1220   15.9416  -15.3476 C   0  0  0  0  0  0  0  0  0  0  0  0
  -28.7897   14.6750  -16.1257 C   0  0  0  0  0  0  0  0  0  0  0  0
  -29.1749   14.8413  -17.4234 F   0  0  0  0  0  0  0  0  0  0  0  0
  -31.1804   15.5600  -15.7249 H   0  0  0  0  0  0  0  0  0  0  0  0
  1  2  1  0  0  0  0
  1  3  1  0  0  0  0
  2  3  1  0  0  0  0
  3  4  1  0  0  0  0
  4  5  2  0  0  0  0
  4  6  1  0  0  0  0
  6  7  1  0  0  0  0
  6 10  1  0  0  0  0
  7  8  1  0  0  0  0
  8  9  1  0  0  0  0
M  END
>  <CHROM.0>
-64.43170710,-60.21825131,-64.11359292,-43.68610308,-176.44081611,-62.22812541
-68.97708635,-57.99221828,-168.67844474

>  <CHROM.1>
-38.06640565,42.16255127,-141.69527624,59.93178795,-30.19555289,16.88222784
-16.25157714,-2.63998500,-0.96541665,2.24013747

>  <Name>
P59204206

>  <RI>
0

>  <Rbt.Current_Directory>
/home/fstefaniak/projects/zuza/docking/adenine/4TZX

>  <Rbt.Executable>
rbdock ($Id: //depot/dev/client3/rdock/2013.1/src/exe/rbdock.cxx#4 $)

>  <Rbt.Library>
libRbt.so (2013.1, Build901 2013/11/27)

>  <Rbt.Parameter_File>
/home/fstefaniak/progs/rDock//data/scripts/dock_solv.prm

>  <Rbt.Receptor>
4tzx.prm

>  <SCORE>
-40.6004

>  <SCORE.INTER>
-20.1861

>  <SCORE.INTER.CONST>
1

>  <SCORE.INTER.POLAR>
-2.6976

>  <SCORE.INTER.ROT>
4

>  <SCORE.INTER.SOLV>
10.4796

>  <SCORE.INTER.VDW>
-14.2253

>  <SCORE.INTER.norm>
-2.2429

>  <SCORE.INTRA>
0.839639

>  <SCORE.INTRA.DIHEDRAL>
1.46794

>  <SCORE.INTRA.DIHEDRAL.0>
1.45854

>  <SCORE.INTRA.POLAR>
0

>  <SCORE.INTRA.POLAR.0>
0

>  <SCORE.INTRA.REPUL>
0

>  <SCORE.INTRA.REPUL.0>
0

>  <SCORE.INTRA.SOLV>
0.15916

>  <SCORE.INTRA.SOLV.lig_0>
-12.7666

>  <SCORE.INTRA.VDW>
0.0260887

>  <SCORE.INTRA.VDW.0>
-0.17083

>  <SCORE.INTRA.norm>
0.0932932

>  <SCORE.RESTR>
0

>  <SCORE.RESTR.CAVITY>
0

>  <SCORE.RESTR.norm>
0

>  <SCORE.SYSTEM>
-21.2539

>  <SCORE.SYSTEM.CONST>
0

>  <SCORE.SYSTEM.DIHEDRAL>
4.51492

>  <SCORE.SYSTEM.POLAR>
-3.01897

>  <SCORE.SYSTEM.SOLV>
-0.0121246

>  <SCORE.SYSTEM.VDW>
-5.60698

>  <SCORE.SYSTEM.norm>
-2.36154

>  <SCORE.heavy>
9

>  <SCORE.norm>
-4.51115

$$$$
P59205821
 OpenBabel12072022113D
libRbt.so/2013.1/901 2013/11/27
 11 11  0  0  0  0  0  0  0  0999 V2000
  -31.6541   17.8016  -14.2488 C   0  0  0  0  0  0  0  0  0  0  0  0
  -30.6537   18.2371  -15.3047 C   0  0  1  0  0  0  0  0  0  0  0  0
  -30.5674   17.2848  -16.4882 C   0  0  1  0  0  0  0  0  0  0  0  0
  -30.2853   18.2104  -17.5566 N   0  0  0  0  0  0  0  0  0  0  0  0
  -30.7687   19.4555  -17.2174 C   0  0  0  0  0  0  0  0  0  0  0  0
  -30.9332   20.4043  -17.9653 O   0  0  0  0  0  0  0  0  0  0  0  0
  -31.0889   19.4766  -15.8859 O   0  0  0  0  0  0  0  0  0  0  0  0
  -30.1406   17.7937  -18.9332 C   0  0  0  0  0  0  0  0  0  0  0  0
  -29.5290   16.1796  -16.2811 C   0  0  0  0  0  0  0  0  0  0  0  0
  -29.9714   15.2198  -15.3224 O   0  0  0  0  0  0  0  0  0  0  0  0
  -30.7723   14.7902  -15.6685 H   0  0  0  0  0  0  0  0  0  0  0  0
  2  1  1  1  0  0  0
  2  3  1  0  0  0  0
  2  7  1  0  0  0  0
  3  4  1  0  0  0  0
  3  9  1  1  0  0  0
  4  5  1  0  0  0  0
  4  8  1  0  0  0  0
  5  6  2  0  0  0  0
  5  7  1  0  0  0  0
  9 10  1  0  0  0  0
 10 11  1  0  0  0  0
M  END
>  <CHROM.0>
-59.25683471,-61.30912868,-63.78718073,-42.60636126,-173.95832053,-62.44935879
-66.55353303,-57.76506847,-168.78172724

>  <CHROM.1>
72.35044685,62.89510825,-30.56609522,17.97906644,-16.50900886,1.28578631
-1.14352329,2.28832215

>  <Name>
P59205821

>  <RI>
0

>  <Rbt.Current_Directory>
/home/fstefaniak/projects/zuza/docking/adenine/4TZX

>  <Rbt.Executable>
rbdock ($Id: //depot/dev/client3/rdock/2013.1/src/exe/rbdock.cxx#4 $)

>  <Rbt.Library>
libRbt.so (2013.1, Build901 2013/11/27)

>  <Rbt.Parameter_File>
/home/fstefaniak/progs/rDock//data/scripts/dock_solv.prm

>  <Rbt.Receptor>
4tzx.prm

>  <SCORE>
-43.414

>  <SCORE.INTER>
-22.1316

>  <SCORE.INTER.CONST>
1

>  <SCORE.INTER.POLAR>
-2.63228

>  <SCORE.INTER.ROT>
1

>  <SCORE.INTER.SOLV>
13.2564

>  <SCORE.INTER.VDW>
-14.6656

>  <SCORE.INTER.norm>
-2.21316

>  <SCORE.INTRA>
-0.0120915

>  <SCORE.INTRA.DIHEDRAL>
0.268775

>  <SCORE.INTRA.DIHEDRAL.0>
0.373337

>  <SCORE.INTRA.POLAR>
0

>  <SCORE.INTRA.POLAR.0>
0

>  <SCORE.INTRA.REPUL>
0

>  <SCORE.INTRA.REPUL.0>
0

>  <SCORE.INTRA.SOLV>
-0.128802

>  <SCORE.INTRA.SOLV.lig_0>
-12.361

>  <SCORE.INTRA.VDW>
-0.0820781

>  <SCORE.INTRA.VDW.0>
-0.312399

>  <SCORE.INTRA.norm>
-0.00120915

>  <SCORE.RESTR>
0

>  <SCORE.RESTR.CAVITY>
0

>  <SCORE.RESTR.norm>
0

>  <SCORE.SYSTEM>
-21.2703

>  <SCORE.SYSTEM.CONST>
0

>  <SCORE.SYSTEM.DIHEDRAL>
4.51643

>  <SCORE.SYSTEM.POLAR>
-3.06424

>  <SCORE.SYSTEM.SOLV>
0.00687208

>  <SCORE.SYSTEM.VDW>
-5.47382

>  <SCORE.SYSTEM.norm>
-2.12703

>  <SCORE.heavy>
10

>  <SCORE.norm>
-4.3414

$$$$
P59205821
 OpenBabel12072022113D
libRbt.so/2013.1/901 2013/11/27
 11 11  0  0  0  0  0  0  0  0999 V2000
  -31.6576   17.8038  -14.2087 C   0  0  0  0  0  0  0  0  0  0  0  0
  -30.6524   18.2369  -15.2609 C   0  0  1  0  0  0  0  0  0  0  0  0
  -30.5547   17.2778  -16.4380 C   0  0  1  0  0  0  0  0  0  0  0  0
  -30.2696   18.1979  -17.5103 N   0  0  0  0  0  0  0  0  0  0  0  0
  -30.7603   19.4431  -17.1819 C   0  0  0  0  0  0  0  0  0  0  0  0
  -30.9239   20.3865  -17.9367 O   0  0  0  0  0  0  0  0  0  0  0  0
  -31.0890   19.4711  -15.8526 O   0  0  0  0  0  0  0  0  0  0  0  0
  -30.1145   17.7733  -18.8833 C   0  0  0  0  0  0  0  0  0  0  0  0
  -29.5131   16.1781  -16.2175 C   0  0  0  0  0  0  0  0  0  0  0  0
  -29.9764   15.1977  -15.2902 O   0  0  0  0  0  0  0  0  0  0  0  0
  -30.7607   14.7657  -15.6698 H   0  0  0  0  0  0  0  0  0  0  0  0
  2  1  1  1  0  0  0
  2  3  1  0  0  0  0
  2  7  1  0  0  0  0
  3  4  1  0  0  0  0
  3  9  1  1  0  0  0
  4  5  1  0  0  0  0
  4  8  1  0  0  0  0
  5  6  2  0  0  0  0
  5  7  1  0  0  0  0
  9 10  1  0  0  0  0
 10 11  1  0  0  0  0
M  END
>  <CHROM.0>
-59.85279326,-61.44998911,-71.45447569,-43.82214797,-177.73436877,-177.11674341
-170.95208687,-58.95695240,-169.62132801

>  <CHROM.1>
74.35936954,63.03282532,-30.55823624,17.96897443,-16.46733608,1.29015706
-1.13935107,2.29471408

>  <Name>
P59205821

>  <RI>
0

>  <Rbt.Current_Directory>
/home/fstefaniak/projects/zuza/docking/adenine/4TZX

>  <Rbt.Executable>
rbdock ($Id: //depot/dev/client3/rdock/2013.1/src/exe/rbdock.cxx#4 $)

>  <Rbt.Library>
libRbt.so (2013.1, Build901 2013/11/27)

>  <Rbt.Parameter_File>
/home/fstefaniak/progs/rDock//data/scripts/dock_solv.prm

>  <Rbt.Receptor>
4tzx.prm

>  <SCORE>
-42.7013

>  <SCORE.INTER>
-22.2156

>  <SCORE.INTER.CONST>
1

>  <SCORE.INTER.POLAR>
-2.67246

>  <SCORE.INTER.ROT>
1

>  <SCORE.INTER.SOLV>
13.2611

>  <SCORE.INTER.VDW>
-14.5892

>  <SCORE.INTER.norm>
-2.22156

>  <SCORE.INTRA>
0.0643633

>  <SCORE.INTRA.DIHEDRAL>
0.449785

>  <SCORE.INTRA.DIHEDRAL.0>
0.373337

>  <SCORE.INTRA.POLAR>
0

>  <SCORE.INTRA.POLAR.0>
0

>  <SCORE.INTRA.REPUL>
0

>  <SCORE.INTRA.REPUL.0>
0

>  <SCORE.INTRA.SOLV>
-0.133526

>  <SCORE.INTRA.SOLV.lig_0>
-12.361

>  <SCORE.INTRA.VDW>
-0.0937661

>  <SCORE.INTRA.VDW.0>
-0.312399

>  <SCORE.INTRA.norm>
0.00643633

>  <SCORE.RESTR>
0

>  <SCORE.RESTR.CAVITY>
0

>  <SCORE.RESTR.norm>
0

>  <SCORE.SYSTEM>
-20.55

>  <SCORE.SYSTEM.CONST>
0

>  <SCORE.SYSTEM.DIHEDRAL>
4.80715

>  <SCORE.SYSTEM.POLAR>
-3.00253

>  <SCORE.SYSTEM.SOLV>
-0.144372

>  <SCORE.SYSTEM.VDW>
-5.24583

>  <SCORE.SYSTEM.norm>
-2.055

>  <SCORE.heavy>
10

>  <SCORE.norm>
-4.27013

$$$$
P59205821
 OpenBabel12072022113D
libRbt.so/2013.1/901 2013/11/27
 11 11  0  0  0  0  0  0  0  0999 V2000
  -31.6600   17.7877  -14.2339 C   0  0  0  0  0  0  0  0  0  0  0  0
  -30.6573   18.2208  -15.2884 C   0  0  1  0  0  0  0  0  0  0  0  0
  -30.5768   17.2721  -16.4751 C   0  0  1  0  0  0  0  0  0  0  0  0
  -30.2893   18.1995  -17.5405 N   0  0  0  0  0  0  0  0  0  0  0  0
  -30.7655   19.4463  -17.1971 C   0  0  0  0  0  0  0  0  0  0  0  0
  -30.9245   20.3985  -17.9418 O   0  0  0  0  0  0  0  0  0  0  0  0
  -31.0853   19.4649  -15.8655 O   0  0  0  0  0  0  0  0  0  0  0  0
  -30.1473   17.7867  -18.9185 C   0  0  0  0  0  0  0  0  0  0  0  0
  -29.5448   16.1601  -16.2719 C   0  0  0  0  0  0  0  0  0  0  0  0
  -29.9867   15.2070  -15.3064 O   0  0  0  0  0  0  0  0  0  0  0  0
  -30.7547   14.7359  -15.6726 H   0  0  0  0  0  0  0  0  0  0  0  0
  2  1  1  1  0  0  0
  2  3  1  0  0  0  0
  2  7  1  0  0  0  0
  3  4  1  0  0  0  0
  3  9  1  1  0  0  0
  4  5  1  0  0  0  0
  4  8  1  0  0  0  0
  5  6  2  0  0  0  0
  5  7  1  0  0  0  0
  9 10  1  0  0  0  0
 10 11  1  0  0  0  0
M  END
>  <CHROM.0>
-58.63770086,56.53022857,-64.33379272,-43.94605774,-176.22047036,-60.80906015
-68.05261460,-57.13894034,-169.22075011

>  <CHROM.1>
71.76134586,67.00121250,-30.57044761,17.96688103,-16.49259165,1.29368780
-1.14730457,2.29722575

>  <Name>
P59205821

>  <RI>
0

>  <Rbt.Current_Directory>
/home/fstefaniak/projects/zuza/docking/adenine/4TZX

>  <Rbt.Executable>
rbdock ($Id: //depot/dev/client3/rdock/2013.1/src/exe/rbdock.cxx#4 $)

>  <Rbt.Library>
libRbt.so (2013.1, Build901 2013/11/27)

>  <Rbt.Parameter_File>
/home/fstefaniak/progs/rDock//data/scripts/dock_solv.prm

>  <Rbt.Receptor>
4tzx.prm

>  <SCORE>
-42.5744

>  <SCORE.INTER>
-22.2021

>  <SCORE.INTER.CONST>
1

>  <SCORE.INTER.POLAR>
-2.6611

>  <SCORE.INTER.ROT>
1

>  <SCORE.INTER.SOLV>
13.2641

>  <SCORE.INTER.VDW>
-14.6191

>  <SCORE.INTER.norm>
-2.22021

>  <SCORE.INTRA>
0.0527445

>  <SCORE.INTRA.DIHEDRAL>
0.418975

>  <SCORE.INTRA.DIHEDRAL.0>
0.373337

>  <SCORE.INTRA.POLAR>
0

>  <SCORE.INTRA.POLAR.0>
0

>  <SCORE.INTRA.REPUL>
0

>  <SCORE.INTRA.REPUL.0>
0

>  <SCORE.INTRA.SOLV>
-0.123089

>  <SCORE.INTRA.SOLV.lig_0>
-12.361

>  <SCORE.INTRA.VDW>
-0.0951985

>  <SCORE.INTRA.VDW.0>
-0.312399

>  <SCORE.INTRA.norm>
0.00527445

>  <SCORE.RESTR>
0

>  <SCORE.RESTR.CAVITY>
0

>  <SCORE.RESTR.norm>
0

>  <SCORE.SYSTEM>
-20.425

>  <SCORE.SYSTEM.CONST>
0

>  <SCORE.SYSTEM.DIHEDRAL>
4.35002

>  <SCORE.SYSTEM.POLAR>
-3.04158

>  <SCORE.SYSTEM.SOLV>
0.0813106

>  <SCORE.SYSTEM.VDW>
-4.95516

>  <SCORE.SYSTEM.norm>
-2.0425

>  <SCORE.heavy>
10

>  <SCORE.norm>
-4.25744

$$$$
P59226121
 OpenBabel12072022113D
libRbt.so/2013.1/901 2013/11/27
 13 13  0  0  0  0  0  0  0  0999 V2000
  -28.2522   14.2810  -17.0691 C   0  0  0  0  0  0  0  0  0  0  0  0
  -28.5840   14.9609  -15.7487 C   0  0  2  0  0  0  0  0  0  0  0  0
  -30.0552   15.3354  -15.6035 C   0  0  0  0  0  0  0  0  0  0  0  0
  -30.0966   16.8016  -16.0071 C   0  0  2  0  0  0  0  0  0  0  0  0
  -28.7362   17.2728  -15.4868 C   0  0  0  0  0  0  0  0  0  0  0  0
  -27.8217   16.1746  -15.6515 O   0  0  0  0  0  0  0  0  0  0  0  0
  -31.2282   17.6104  -15.3775 C   0  0  0  0  0  0  0  0  0  0  0  0
  -30.0719   16.9823  -17.4455 O   0  0  0  0  0  0  0  0  0  0  0  0
  -30.1731   18.2221  -17.9648 C   0  0  0  0  0  0  0  0  0  0  0  0
  -29.9942   19.2789  -17.3847 O   0  0  0  0  0  0  0  0  0  0  0  0
  -30.5261   18.1398  -19.2657 N   0  0  0  0  0  0  0  0  0  0  0  0
  -30.7181   17.2392  -19.6760 H   0  0  0  0  0  0  0  0  0  0  0  0
  -30.6874   18.9894  -19.7844 H   0  0  0  0  0  0  0  0  0  0  0  0
  2  3  1  0  0  0  0
  2  6  1  0  0  0  0
  2  1  1  6  0  0  0
  3  4  1  0  0  0  0
  4  5  1  0  0  0  0
  4  7  1  1  0  0  0
  4  8  1  0  0  0  0
  5  6  1  0  0  0  0
  8  9  1  0  0  0  0
  9 10  2  0  0  0  0
  9 11  1  0  0  0  0
 11 12  1  0  0  0  0
 11 13  1  0  0  0  0
M  END
>  <CHROM.0>
-60.54810945,-178.72671377,-71.53509470,-42.96036400,-58.28169415,-61.38340863
-168.89773452,-56.58176448,-169.01084302

>  <CHROM.1>
176.56944254,17.56607043,-29.59186687,16.84739111,-16.67427714,-0.60358423
1.02189241,-1.45517673

>  <Name>
P59226121

>  <RI>
0

>  <Rbt.Current_Directory>
/home/fstefaniak/projects/zuza/docking/adenine/4TZX

>  <Rbt.Executable>
rbdock ($Id: //depot/dev/client3/rdock/2013.1/src/exe/rbdock.cxx#4 $)

>  <Rbt.Library>
libRbt.so (2013.1, Build901 2013/11/27)

>  <Rbt.Parameter_File>
/home/fstefaniak/progs/rDock//data/scripts/dock_solv.prm

>  <Rbt.Receptor>
4tzx.prm

>  <SCORE>
-37.0324

>  <SCORE.INTER>
-19.2608

>  <SCORE.INTER.CONST>
1

>  <SCORE.INTER.POLAR>
-1.8426

>  <SCORE.INTER.ROT>
2

>  <SCORE.INTER.SOLV>
11.7798

>  <SCORE.INTER.VDW>
-15.5584

>  <SCORE.INTER.norm>
-1.75098

>  <SCORE.INTRA>
2.67357

>  <SCORE.INTRA.DIHEDRAL>
2.66697

>  <SCORE.INTRA.DIHEDRAL.0>
0.14723

>  <SCORE.INTRA.POLAR>
0

>  <SCORE.INTRA.POLAR.0>
0

>  <SCORE.INTRA.REPUL>
0

>  <SCORE.INTRA.REPUL.0>
0

>  <SCORE.INTRA.SOLV>
-0.124728

>  <SCORE.INTRA.SOLV.lig_0>
-9.19001

>  <SCORE.INTRA.VDW>
1.40245

>  <SCORE.INTRA.VDW.0>
-0.00896957

>  <SCORE.INTRA.norm>
0.243052

>  <SCORE.RESTR>
0

>  <SCORE.RESTR.CAVITY>
0

>  <SCORE.RESTR.norm>
0

>  <SCORE.SYSTEM>
-20.4452

>  <SCORE.SYSTEM.CONST>
0

>  <SCORE.SYSTEM.DIHEDRAL>
5.17982

>  <SCORE.SYSTEM.POLAR>
-3.04075

>  <SCORE.SYSTEM.SOLV>
0.137391

>  <SCORE.SYSTEM.VDW>
-5.26672

>  <SCORE.SYSTEM.norm>
-1.85866

>  <SCORE.heavy>
11

>  <SCORE.norm>
-3.36658

$$$$
P59226121
 OpenBabel12072022113D
libRbt.so/2013.1/901 2013/11/27
 13 13  0  0  0  0  0  0  0  0999 V2000
  -28.2130   14.3011  -17.0738 C   0  0  0  0  0  0  0  0  0  0  0  0
  -28.5503   14.9771  -15.7527 C   0  0  2  0  0  0  0  0  0  0  0  0
  -30.0263   15.3306  -15.6031 C   0  0  0  0  0  0  0  0  0  0  0  0
  -30.0899   16.7958  -16.0075 C   0  0  2  0  0  0  0  0  0  0  0  0
  -28.7348   17.2868  -15.4919 C   0  0  0  0  0  0  0  0  0  0  0  0
  -27.8052   16.2016  -15.6589 O   0  0  0  0  0  0  0  0  0  0  0  0
  -31.2311   17.5886  -15.3749 C   0  0  0  0  0  0  0  0  0  0  0  0
  -30.0724   16.9757  -17.4461 O   0  0  0  0  0  0  0  0  0  0  0  0
  -30.1718   18.2156  -17.9654 C   0  0  0  0  0  0  0  0  0  0  0  0
  -29.9987   19.2724  -17.3834 O   0  0  0  0  0  0  0  0  0  0  0  0
  -30.5154   18.1336  -19.2689 N   0  0  0  0  0  0  0  0  0  0  0  0
  -30.7031   17.2330  -19.6810 H   0  0  0  0  0  0  0  0  0  0  0  0
  -30.6742   18.9833  -19.7882 H   0  0  0  0  0  0  0  0  0  0  0  0
  2  3  1  0  0  0  0
  2  6  1  0  0  0  0
  2  1  1  6  0  0  0
  3  4  1  0  0  0  0
  4  5  1  0  0  0  0
  4  7  1  1  0  0  0
  4  8  1  0  0  0  0
  5  6  1  0  0  0  0
  8  9  1  0  0  0  0
  9 10  2  0  0  0  0
  9 11  1  0  0  0  0
 11 12  1  0  0  0  0
 11 13  1  0  0  0  0
M  END
>  <CHROM.0>
-55.00208888,-175.10140203,-71.34173196,-43.65201957,-55.41197263,-62.41490679
-170.47880349,-63.29942330,-168.67202327

>  <CHROM.1>
177.61497306,16.77881744,-29.58013110,16.84921310,-16.67630688,-0.61485922
1.00768915,-1.44194256

>  <Name>
P59226121

>  <RI>
0

>  <Rbt.Current_Directory>
/home/fstefaniak/projects/zuza/docking/adenine/4TZX

>  <Rbt.Executable>
rbdock ($Id: //depot/dev/client3/rdock/2013.1/src/exe/rbdock.cxx#4 $)

>  <Rbt.Library>
libRbt.so (2013.1, Build901 2013/11/27)

>  <Rbt.Parameter_File>
/home/fstefaniak/progs/rDock//data/scripts/dock_solv.prm

>  <Rbt.Receptor>
4tzx.prm

>  <SCORE>
-36.9108

>  <SCORE.INTER>
-19.0365

>  <SCORE.INTER.CONST>
1

>  <SCORE.INTER.POLAR>
-1.82416

>  <SCORE.INTER.ROT>
2

>  <SCORE.INTER.SOLV>
11.7762

>  <SCORE.INTER.VDW>
-15.4692

>  <SCORE.INTER.norm>
-1.73059

>  <SCORE.INTRA>
2.4869

>  <SCORE.INTRA.DIHEDRAL>
2.38958

>  <SCORE.INTRA.DIHEDRAL.0>
0.14723

>  <SCORE.INTRA.POLAR>
0

>  <SCORE.INTRA.POLAR.0>
0

>  <SCORE.INTRA.REPUL>
0

>  <SCORE.INTRA.REPUL.0>
0

>  <SCORE.INTRA.SOLV>
-0.117951

>  <SCORE.INTRA.SOLV.lig_0>
-9.19001

>  <SCORE.INTRA.VDW>
1.35108

>  <SCORE.INTRA.VDW.0>
-0.00896957

>  <SCORE.INTRA.norm>
0.226082

>  <SCORE.RESTR>
0

>  <SCORE.RESTR.CAVITY>
0

>  <SCORE.RESTR.norm>
0

>  <SCORE.SYSTEM>
-20.3612

>  <SCORE.SYSTEM.CONST>
0

>  <SCORE.SYSTEM.DIHEDRAL>
5.26994

>  <SCORE.SYSTEM.POLAR>
-3.07011

>  <SCORE.SYSTEM.SOLV>
0.13187

>  <SCORE.SYSTEM.VDW>
-5.14102

>  <SCORE.SYSTEM.norm>
-1.85102

>  <SCORE.heavy>
11

>  <SCORE.norm>
-3.35553

$$$$
P59226121
 OpenBabel12072022113D
libRbt.so/2013.1/901 2013/11/27
 13 13  0  0  0  0  0  0  0  0999 V2000
  -28.9213   15.1540  -16.4611 C   0  0  0  0  0  0  0  0  0  0  0  0
  -28.6874   13.6523  -16.3845 C   0  0  2  0  0  0  0  0  0  0  0  0
  -27.3941   13.2677  -15.6736 C   0  0  0  0  0  0  0  0  0  0  0  0
  -26.4088   13.0451  -16.8111 C   0  0  2  0  0  0  0  0  0  0  0  0
  -27.3425   12.4749  -17.8818 C   0  0  0  0  0  0  0  0  0  0  0  0
  -28.6134   13.1293  -17.7204 O   0  0  0  0  0  0  0  0  0  0  0  0
  -25.2780   12.0673  -16.5004 C   0  0  0  0  0  0  0  0  0  0  0  0
  -25.8843   14.2881  -17.3423 O   0  0  0  0  0  0  0  0  0  0  0  0
  -25.2986   15.1745  -16.5128 C   0  0  0  0  0  0  0  0  0  0  0  0
  -25.2914   15.1475  -15.2944 O   0  0  0  0  0  0  0  0  0  0  0  0
  -24.7043   16.1471  -17.2373 N   0  0  0  0  0  0  0  0  0  0  0  0
  -24.7941   16.1487  -18.2413 H   0  0  0  0  0  0  0  0  0  0  0  0
  -24.2595   16.9139  -16.7565 H   0  0  0  0  0  0  0  0  0  0  0  0
  2  3  1  0  0  0  0
  2  6  1  0  0  0  0
  2  1  1  6  0  0  0
  3  4  1  0  0  0  0
  4  5  1  0  0  0  0
  4  7  1  1  0  0  0
  4  8  1  0  0  0  0
  5  6  1  0  0  0  0
  8  9  1  0  0  0  0
  9 10  2  0  0  0  0
  9 11  1  0  0  0  0
 11 12  1  0  0  0  0
 11 13  1  0  0  0  0
M  END
>  <CHROM.0>
-61.07359358,46.99252034,-63.52210196,-43.09472272,-54.53992341,-63.49406378
-67.27122711,-55.06807197,-169.04386729

>  <CHROM.1>
54.62861511,-10.11285547,-26.69372956,13.99341828,-16.72398119,2.58461446
0.04270148,-2.96920236

>  <Name>
P59226121

>  <RI>
0

>  <Rbt.Current_Directory>
/home/fstefaniak/projects/zuza/docking/adenine/4TZX

>  <Rbt.Executable>
rbdock ($Id: //depot/dev/client3/rdock/2013.1/src/exe/rbdock.cxx#4 $)

>  <Rbt.Library>
libRbt.so (2013.1, Build901 2013/11/27)

>  <Rbt.Parameter_File>
/home/fstefaniak/progs/rDock//data/scripts/dock_solv.prm

>  <Rbt.Receptor>
4tzx.prm

>  <SCORE>
-36.5328

>  <SCORE.INTER>
-17.1189

>  <SCORE.INTER.CONST>
1

>  <SCORE.INTER.POLAR>
-1.97563

>  <SCORE.INTER.ROT>
2

>  <SCORE.INTER.SOLV>
10.3343

>  <SCORE.INTER.VDW>
-13.2052

>  <SCORE.INTER.norm>
-1.55626

>  <SCORE.INTRA>
0.81374

>  <SCORE.INTRA.DIHEDRAL>
1.35943

>  <SCORE.INTRA.DIHEDRAL.0>
0.14723

>  <SCORE.INTRA.POLAR>
0

>  <SCORE.INTRA.POLAR.0>
0

>  <SCORE.INTRA.REPUL>
0

>  <SCORE.INTRA.REPUL.0>
0

>  <SCORE.INTRA.SOLV>
0.126882

>  <SCORE.INTRA.SOLV.lig_0>
-9.19001

>  <SCORE.INTRA.VDW>
0.070583

>  <SCORE.INTRA.VDW.0>
-0.00896957

>  <SCORE.INTRA.norm>
0.0739764

>  <SCORE.RESTR>
0

>  <SCORE.RESTR.CAVITY>
0

>  <SCORE.RESTR.norm>
0

>  <SCORE.SYSTEM>
-20.2276

>  <SCORE.SYSTEM.CONST>
0

>  <SCORE.SYSTEM.DIHEDRAL>
5.32305

>  <SCORE.SYSTEM.POLAR>
-3.12805

>  <SCORE.SYSTEM.SOLV>
0.297491

>  <SCORE.SYSTEM.VDW>
-4.93177

>  <SCORE.SYSTEM.norm>
-1.83888

>  <SCORE.heavy>
11

>  <SCORE.norm>
-3.32116

$$$$
P59255515
 OpenBabel12072022113D
libRbt.so/2013.1/901 2013/11/27
 12 13  0  0  0  0  0  0  0  0999 V2000
  -25.5181   17.2189  -15.5753 C   0  0  0  0  0  0  0  0  0  0  0  0
  -25.4357   16.5116  -16.7104 C   0  0  0  0  0  0  0  0  0  0  0  0
  -25.1903   15.0334  -16.7893 C   0  0  0  0  0  0  0  0  0  0  0  0
  -26.4350   14.3269  -17.2131 N   0  3  2  0  0  0  0  0  0  0  0  0
  -26.6180   14.5362  -18.1938 H   0  0  0  0  0  0  0  0  0  0  0  0
  -27.6692   14.6065  -16.3492 C   0  0  0  0  0  0  0  0  0  0  0  0
  -28.0814   13.1915  -15.8907 C   0  0  1  0  0  0  0  0  0  0  0  0
  -27.7490   12.3473  -17.1071 C   0  0  0  0  0  0  0  0  0  0  0  0
  -26.3052   12.7965  -17.0682 C   0  0  2  0  0  0  0  0  0  0  0  0
  -26.0277   12.4903  -15.5830 C   0  0  0  0  0  0  0  0  0  0  0  0
  -27.0985   12.7314  -14.8647 N   0  0  0  0  0  0  0  0  0  0  0  0
  -24.8905   12.1476  -15.2301 O   0  5  0  0  0  0  0  0  0  0  0  0
  1  2  2  0  0  0  0
  2  3  1  0  0  0  0
  3  4  1  0  0  0  0
  4  5  1  6  0  0  0
  4  6  1  0  0  0  0
  4  9  1  0  0  0  0
  7  6  1  6  0  0  0
  7  8  1  0  0  0  0
  7 11  1  0  0  0  0
  9  8  1  1  0  0  0
  9 10  1  0  0  0  0
 10 11  2  0  0  0  0
 10 12  1  0  0  0  0
M  CHG  2   4   1  12  -1
M  END
>  <CHROM.0>
-59.87896749,-178.13848204,-66.09337370,-179.87059044,-59.13910890,-62.60785643
-65.90520190,-59.94133075,-168.78834164

>  <CHROM.1>
108.27822207,70.69268329,-26.38265040,13.94123429,-16.21846570,-1.25027823
0.37579479,2.93162213

>  <Name>
P59255515

>  <RI>
0

>  <Rbt.Current_Directory>
/home/fstefaniak/projects/zuza/docking/adenine/4TZX

>  <Rbt.Executable>
rbdock ($Id: //depot/dev/client3/rdock/2013.1/src/exe/rbdock.cxx#4 $)

>  <Rbt.Library>
libRbt.so (2013.1, Build901 2013/11/27)

>  <Rbt.Parameter_File>
/home/fstefaniak/progs/rDock//data/scripts/dock_solv.prm

>  <Rbt.Receptor>
4tzx.prm

>  <SCORE>
-35.6684

>  <SCORE.INTER>
-16.2701

>  <SCORE.INTER.CONST>
1

>  <SCORE.INTER.POLAR>
-2.7155

>  <SCORE.INTER.ROT>
2

>  <SCORE.INTER.SOLV>
14.6222

>  <SCORE.INTER.VDW>
-11.6025

>  <SCORE.INTER.norm>
-1.4791

>  <SCORE.INTRA>
-0.709958

>  <SCORE.INTRA.DIHEDRAL>
-1.2898

>  <SCORE.INTRA.DIHEDRAL.0>
1.7566

>  <SCORE.INTRA.POLAR>
0

>  <SCORE.INTRA.POLAR.0>
0

>  <SCORE.INTRA.REPUL>
0

>  <SCORE.INTRA.REPUL.0>
0

>  <SCORE.INTRA.SOLV>
-0.918092

>  <SCORE.INTRA.SOLV.lig_0>
-41.4675

>  <SCORE.INTRA.VDW>
0.393987

>  <SCORE.INTRA.VDW.0>
-0.355475

>  <SCORE.INTRA.norm>
-0.0645416

>  <SCORE.RESTR>
0

>  <SCORE.RESTR.CAVITY>
0

>  <SCORE.RESTR.norm>
0

>  <SCORE.SYSTEM>
-18.6883

>  <SCORE.SYSTEM.CONST>
0

>  <SCORE.SYSTEM.DIHEDRAL>
3.05291

>  <SCORE.SYSTEM.POLAR>
-2.46207

>  <SCORE.SYSTEM.SOLV>
-0.00734985

>  <SCORE.SYSTEM.VDW>
-5.26717

>  <SCORE.SYSTEM.norm>
-1.69894

>  <SCORE.heavy>
11

>  <SCORE.norm>
-3.24258

$$$$
P59255515
 OpenBabel12072022113D
libRbt.so/2013.1/901 2013/11/27
 12 13  0  0  0  0  0  0  0  0999 V2000
  -24.8786   17.2875  -16.2923 C   0  0  0  0  0  0  0  0  0  0  0  0
  -25.6656   16.2547  -15.9614 C   0  0  0  0  0  0  0  0  0  0  0  0
  -25.3856   14.8176  -16.2902 C   0  0  0  0  0  0  0  0  0  0  0  0
  -26.5102   14.2430  -17.0859 N   0  3  2  0  0  0  0  0  0  0  0  0
  -26.4982   14.6508  -18.0200 H   0  0  0  0  0  0  0  0  0  0  0  0
  -27.8956   14.3735  -16.4443 C   0  0  0  0  0  0  0  0  0  0  0  0
  -28.3684   12.9060  -16.3733 C   0  0  1  0  0  0  0  0  0  0  0  0
  -27.7880   12.3169  -17.6457 C   0  0  0  0  0  0  0  0  0  0  0  0
  -26.3879   12.7122  -17.2321 C   0  0  2  0  0  0  0  0  0  0  0  0
  -26.4060   12.1053  -15.8150 C   0  0  0  0  0  0  0  0  0  0  0  0
  -27.6017   12.2233  -15.2887 N   0  0  0  0  0  0  0  0  0  0  0  0
  -25.3562   11.6696  -15.3216 O   0  5  0  0  0  0  0  0  0  0  0  0
  1  2  2  0  0  0  0
  2  3  1  0  0  0  0
  3  4  1  0  0  0  0
  4  5  1  6  0  0  0
  4  6  1  0  0  0  0
  4  9  1  0  0  0  0
  7  6  1  6  0  0  0
  7  8  1  0  0  0  0
  7 11  1  0  0  0  0
  9  8  1  6  0  0  0
  9 10  1  0  0  0  0
 10 11  2  0  0  0  0
 10 12  1  0  0  0  0
M  CHG  2   4   1  12  -1
M  END
>  <CHROM.0>
-57.77965801,-73.84121808,-71.17445609,-43.10585750,-175.33453323,-61.44899606
-168.48447519,-173.64194315,-169.16442498

>  <CHROM.1>
-122.20325579,70.75830808,-26.54871144,13.71541948,-16.34227867,-1.12791094
0.43369507,2.93189845

>  <Name>
P59255515

>  <RI>
0

>  <Rbt.Current_Directory>
/home/fstefaniak/projects/zuza/docking/adenine/4TZX

>  <Rbt.Executable>
rbdock ($Id: //depot/dev/client3/rdock/2013.1/src/exe/rbdock.cxx#4 $)

>  <Rbt.Library>
libRbt.so (2013.1, Build901 2013/11/27)

>  <Rbt.Parameter_File>
/home/fstefaniak/progs/rDock//data/scripts/dock_solv.prm

>  <Rbt.Receptor>
4tzx.prm

>  <SCORE>
-34.4816

>  <SCORE.INTER>
-13.522

>  <SCORE.INTER.CONST>
1

>  <SCORE.INTER.POLAR>
-2.18061

>  <SCORE.INTER.ROT>
2

>  <SCORE.INTER.SOLV>
13.3703

>  <SCORE.INTER.VDW>
-11.1361

>  <SCORE.INTER.norm>
-1.22927

>  <SCORE.INTRA>
-0.568868

>  <SCORE.INTRA.DIHEDRAL>
-1.54985

>  <SCORE.INTRA.DIHEDRAL.0>
1.7566

>  <SCORE.INTRA.POLAR>
0

>  <SCORE.INTRA.POLAR.0>
0

>  <SCORE.INTRA.REPUL>
0

>  <SCORE.INTRA.REPUL.0>
0

>  <SCORE.INTRA.SOLV>
-0.582634

>  <SCORE.INTRA.SOLV.lig_0>
-41.4675

>  <SCORE.INTRA.VDW>
0.497374

>  <SCORE.INTRA.VDW.0>
-0.355475

>  <SCORE.INTRA.norm>
-0.0517153

>  <SCORE.RESTR>
0

>  <SCORE.RESTR.CAVITY>
0

>  <SCORE.RESTR.norm>
0

>  <SCORE.SYSTEM>
-20.3908

>  <SCORE.SYSTEM.CONST>
0

>  <SCORE.SYSTEM.DIHEDRAL>
6.26314

>  <SCORE.SYSTEM.POLAR>
-3.0439

>  <SCORE.SYSTEM.SOLV>
-0.164514

>  <SCORE.SYSTEM.VDW>
-5.48038

>  <SCORE.SYSTEM.norm>
-1.85371

>  <SCORE.heavy>
11

>  <SCORE.norm>
-3.13469

$$$$
P59255515
 OpenBabel12072022113D
libRbt.so/2013.1/901 2013/11/27
 12 13  0  0  0  0  0  0  0  0999 V2000
  -24.6591   16.9269  -16.7514 C   0  0  0  0  0  0  0  0  0  0  0  0
  -25.2581   15.7387  -16.9088 C   0  0  0  0  0  0  0  0  0  0  0  0
  -26.4919   15.2920  -16.1809 C   0  0  0  0  0  0  0  0  0  0  0  0
  -27.1705   14.2004  -16.9397 N   0  3  2  0  0  0  0  0  0  0  0  0
  -27.3308   14.5115  -17.8970 H   0  0  0  0  0  0  0  0  0  0  0  0
  -28.4626   13.6729  -16.3069 C   0  0  0  0  0  0  0  0  0  0  0  0
  -28.1633   12.1673  -16.1461 C   0  0  1  0  0  0  0  0  0  0  0  0
  -27.3321   11.8688  -17.3801 C   0  0  0  0  0  0  0  0  0  0  0  0
  -26.3144   12.9181  -16.9919 C   0  0  2  0  0  0  0  0  0  0  0  0
  -26.0768   12.4564  -15.5403 C   0  0  0  0  0  0  0  0  0  0  0  0
  -27.1938   12.0044  -15.0219 N   0  0  0  0  0  0  0  0  0  0  0  0
  -24.9629   12.6151  -15.0214 O   0  5  0  0  0  0  0  0  0  0  0  0
  1  2  2  0  0  0  0
  2  3  1  0  0  0  0
  3  4  1  0  0  0  0
  4  5  1  6  0  0  0
  4  6  1  0  0  0  0
  4  9  1  0  0  0  0
  7  6  1  6  0  0  0
  7  8  1  0  0  0  0
  7 11  1  0  0  0  0
  9  8  1  6  0  0  0
  9 10  1  0  0  0  0
 10 11  2  0  0  0  0
 10 12  1  0  0  0  0
M  CHG  2   4   1  12  -1
M  END
>  <CHROM.0>
-60.83552359,-65.83128379,-71.44719158,-42.61645678,-57.89892020,-175.76018321
-171.32507727,-59.99589507,-168.98924426

>  <CHROM.1>
158.21069890,-53.36873260,-26.54339422,13.63245232,-16.28634902,-1.03674028
0.41164155,2.75237326

>  <Name>
P59255515

>  <RI>
0

>  <Rbt.Current_Directory>
/home/fstefaniak/projects/zuza/docking/adenine/4TZX

>  <Rbt.Executable>
rbdock ($Id: //depot/dev/client3/rdock/2013.1/src/exe/rbdock.cxx#4 $)

>  <Rbt.Library>
libRbt.so (2013.1, Build901 2013/11/27)

>  <Rbt.Parameter_File>
/home/fstefaniak/progs/rDock//data/scripts/dock_solv.prm

>  <Rbt.Receptor>
4tzx.prm

>  <SCORE>
-33.1184

>  <SCORE.INTER>
-12.9822

>  <SCORE.INTER.CONST>
1

>  <SCORE.INTER.POLAR>
-1.61555

>  <SCORE.INTER.ROT>
2

>  <SCORE.INTER.SOLV>
13.6931

>  <SCORE.INTER.VDW>
-12.7673

>  <SCORE.INTER.norm>
-1.1802

>  <SCORE.INTRA>
0.271165

>  <SCORE.INTRA.DIHEDRAL>
0.426291

>  <SCORE.INTRA.DIHEDRAL.0>
1.7566

>  <SCORE.INTRA.POLAR>
0

>  <SCORE.INTRA.POLAR.0>
0

>  <SCORE.INTRA.REPUL>
0

>  <SCORE.INTRA.REPUL.0>
0

>  <SCORE.INTRA.SOLV>
0.156204

>  <SCORE.INTRA.SOLV.lig_0>
-41.4675

>  <SCORE.INTRA.VDW>
-0.0200828

>  <SCORE.INTRA.VDW.0>
-0.355475

>  <SCORE.INTRA.norm>
0.0246514

>  <SCORE.RESTR>
0

>  <SCORE.RESTR.CAVITY>
0

>  <SCORE.RESTR.norm>
0

>  <SCORE.SYSTEM>
-20.4074

>  <SCORE.SYSTEM.CONST>
0

>  <SCORE.SYSTEM.DIHEDRAL>
5.19729

>  <SCORE.SYSTEM.POLAR>
-3.03926

>  <SCORE.SYSTEM.SOLV>
0.0374069

>  <SCORE.SYSTEM.VDW>
-5.21894

>  <SCORE.SYSTEM.norm>
-1.85522

>  <SCORE.heavy>
11

>  <SCORE.norm>
-3.01076

$$$$
P59273005
 OpenBabel12072022113D
libRbt.so/2013.1/901 2013/11/27
 18 19  0  0  0  0  0  0  0  0999 V2000
  -25.9237   15.7576  -16.3093 C   0  0  0  0  0  0  0  0  0  0  0  0
  -27.4125   16.0891  -16.3474 C   0  0  0  0  0  0  0  0  0  0  0  0
  -28.2396   14.8091  -16.2725 C   0  0  0  0  0  0  0  0  0  0  0  0
  -27.7824   16.8846  -15.2142 O   0  0  0  0  0  0  0  0  0  0  0  0
  -29.0626   17.4216  -15.4090 N   0  0  0  0  0  0  0  0  0  0  0  0
  -30.0116   17.6155  -14.4002 C   0  0  0  0  0  0  0  0  0  0  0  0
  -31.1786   18.0865  -15.0024 C   0  0  0  0  0  0  0  0  0  0  0  0
  -30.9081   18.1225  -16.3579 C   0  0  0  0  0  0  0  0  0  0  0  0
  -29.6538   17.7140  -16.5899 C   0  0  0  0  0  0  0  0  0  0  0  0
  -29.3558   17.7362  -17.9012 O   0  0  0  0  0  0  0  0  0  0  0  0
  -30.5193   18.1870  -18.4968 C   0  0  0  0  0  0  0  0  0  0  0  0
  -31.5158   18.4414  -17.5560 C   0  0  0  0  0  0  0  0  0  0  0  0
  -32.3113   18.4196  -14.3574 N   0  0  0  0  0  0  0  0  0  0  0  0
  -29.7364   17.3433  -13.0965 N   0  0  0  0  0  0  0  0  0  0  0  0
  -33.1747   17.9473  -14.6080 H   0  0  0  0  0  0  0  0  0  0  0  0
  -32.2802   18.6960  -13.3813 H   0  0  0  0  0  0  0  0  0  0  0  0
  -30.3048   17.8079  -12.3888 H   0  0  0  0  0  0  0  0  0  0  0  0
  -28.7582   17.2855  -12.8267 H   0  0  0  0  0  0  0  0  0  0  0  0
  1  2  1  0  0  0  0
  2  3  1  0  0  0  0
  2  4  1  0  0  0  0
  4  5  1  0  0  0  0
  5  6  1  0  0  0  0
  5  9  1  0  0  0  0
  6  7  2  0  0  0  0
  6 14  1  0  0  0  0
  7  8  1  0  0  0  0
  7 13  1  0  0  0  0
  8  9  2  0  0  0  0
  8 12  1  0  0  0  0
  9 10  1  0  0  0  0
 10 11  1  0  0  0  0
 11 12  2  0  0  0  0
 13 15  1  0  0  0  0
 13 16  1  0  0  0  0
 14 17  1  0  0  0  0
 14 18  1  0  0  0  0
M  END
>  <CHROM.0>
-63.97788378,-172.87029603,-64.76033137,-44.63877487,-177.69042033,-62.02586052
-67.42445050,-60.82447373,-169.24614623

>  <CHROM.1>
167.14442762,144.58558898,157.95586824,-122.24887738,-29.48991770,17.29473063
-15.90384842,-0.07808912,-0.51348685,1.65120420

>  <Name>
P59273005

>  <RI>
0

>  <Rbt.Current_Directory>
/home/fstefaniak/projects/zuza/docking/adenine/4TZX

>  <Rbt.Executable>
rbdock ($Id: //depot/dev/client3/rdock/2013.1/src/exe/rbdock.cxx#4 $)

>  <Rbt.Library>
libRbt.so (2013.1, Build901 2013/11/27)

>  <Rbt.Parameter_File>
/home/fstefaniak/progs/rDock//data/scripts/dock_solv.prm

>  <Rbt.Receptor>
4tzx.prm

>  <SCORE>
-61.9098

>  <SCORE.INTER>
-40.2738

>  <SCORE.INTER.CONST>
1

>  <SCORE.INTER.POLAR>
-4.35911

>  <SCORE.INTER.ROT>
4

>  <SCORE.INTER.SOLV>
15.732

>  <SCORE.INTER.VDW>
-23.8295

>  <SCORE.INTER.norm>
-2.8767

>  <SCORE.INTRA>
-0.521735

>  <SCORE.INTRA.DIHEDRAL>
-3.71109

>  <SCORE.INTRA.DIHEDRAL.0>
6.58378

>  <SCORE.INTRA.POLAR>
0

>  <SCORE.INTRA.POLAR.0>
0

>  <SCORE.INTRA.REPUL>
0

>  <SCORE.INTRA.REPUL.0>
0

>  <SCORE.INTRA.SOLV>
0.023922

>  <SCORE.INTRA.SOLV.lig_0>
-15.0499

>  <SCORE.INTRA.VDW>
1.32185

>  <SCORE.INTRA.VDW.0>
-1.72639

>  <SCORE.INTRA.norm>
-0.0372668

>  <SCORE.RESTR>
0

>  <SCORE.RESTR.CAVITY>
0

>  <SCORE.RESTR.norm>
0

>  <SCORE.SYSTEM>
-21.1143

>  <SCORE.SYSTEM.CONST>
0

>  <SCORE.SYSTEM.DIHEDRAL>
4.41876

>  <SCORE.SYSTEM.POLAR>
-2.9823

>  <SCORE.SYSTEM.SOLV>
-0.0455155

>  <SCORE.SYSTEM.VDW>
-5.59291

>  <SCORE.SYSTEM.norm>
-1.50816

>  <SCORE.heavy>
14

>  <SCORE.norm>
-4.42213

$$$$
P59273005
 OpenBabel12072022113D
libRbt.so/2013.1/901 2013/11/27
 18 19  0  0  0  0  0  0  0  0999 V2000
  -25.9390   15.7412  -16.3653 C   0  0  0  0  0  0  0  0  0  0  0  0
  -27.4311   16.0600  -16.3673 C   0  0  0  0  0  0  0  0  0  0  0  0
  -28.2445   14.7763  -16.2315 C   0  0  0  0  0  0  0  0  0  0  0  0
  -27.7733   16.8841  -15.2459 O   0  0  0  0  0  0  0  0  0  0  0  0
  -29.0542   17.4241  -15.4273 N   0  0  0  0  0  0  0  0  0  0  0  0
  -30.0011   17.5976  -14.4128 C   0  0  0  0  0  0  0  0  0  0  0  0
  -31.1697   18.0797  -15.0031 C   0  0  0  0  0  0  0  0  0  0  0  0
  -30.9022   18.1425  -16.3582 C   0  0  0  0  0  0  0  0  0  0  0  0
  -29.6482   17.7394  -16.6010 C   0  0  0  0  0  0  0  0  0  0  0  0
  -29.3531   17.7877  -17.9122 O   0  0  0  0  0  0  0  0  0  0  0  0
  -30.5181   18.2494  -18.4962 C   0  0  0  0  0  0  0  0  0  0  0  0
  -31.5127   18.4846  -17.5484 C   0  0  0  0  0  0  0  0  0  0  0  0
  -32.3012   18.3992  -14.3492 N   0  0  0  0  0  0  0  0  0  0  0  0
  -29.7230   17.2999  -13.1154 N   0  0  0  0  0  0  0  0  0  0  0  0
  -33.1702   17.9534  -14.6272 H   0  0  0  0  0  0  0  0  0  0  0  0
  -32.2721   18.6278  -13.3607 H   0  0  0  0  0  0  0  0  0  0  0  0
  -30.2996   17.7386  -12.3980 H   0  0  0  0  0  0  0  0  0  0  0  0
  -28.7442   17.2518  -12.8455 H   0  0  0  0  0  0  0  0  0  0  0  0
  1  2  1  0  0  0  0
  2  3  1  0  0  0  0
  2  4  1  0  0  0  0
  4  5  1  0  0  0  0
  5  6  1  0  0  0  0
  5  9  1  0  0  0  0
  6  7  2  0  0  0  0
  6 14  1  0  0  0  0
  7  8  1  0  0  0  0
  7 13  1  0  0  0  0
  8  9  2  0  0  0  0
  8 12  1  0  0  0  0
  9 10  1  0  0  0  0
 10 11  1  0  0  0  0
 11 12  2  0  0  0  0
 13 15  1  0  0  0  0
 13 16  1  0  0  0  0
 14 17  1  0  0  0  0
 14 18  1  0  0  0  0
M  END
>  <CHROM.0>
-57.79243365,-174.83870327,-60.94351289,-43.43094127,59.47738582,-54.60059486
-66.00054736,-174.57015022,-169.17276444

>  <CHROM.1>
166.12840286,141.86831478,158.90279466,-124.19000470,-29.48708966,17.29624198
-15.91302818,0.06024923,0.52182672,-1.46412535

>  <Name>
P59273005

>  <RI>
0

>  <Rbt.Current_Directory>
/home/fstefaniak/projects/zuza/docking/adenine/4TZX

>  <Rbt.Executable>
rbdock ($Id: //depot/dev/client3/rdock/2013.1/src/exe/rbdock.cxx#4 $)

>  <Rbt.Library>
libRbt.so (2013.1, Build901 2013/11/27)

>  <Rbt.Parameter_File>
/home/fstefaniak/progs/rDock//data/scripts/dock_solv.prm

>  <Rbt.Receptor>
4tzx.prm

>  <SCORE>
-60.9271

>  <SCORE.INTER>
-40.3731

>  <SCORE.INTER.CONST>
1

>  <SCORE.INTER.POLAR>
-4.36294

>  <SCORE.INTER.ROT>
4

>  <SCORE.INTER.SOLV>
15.7745

>  <SCORE.INTER.VDW>
-23.8971

>  <SCORE.INTER.norm>
-2.88379

>  <SCORE.INTRA>
-0.541455

>  <SCORE.INTRA.DIHEDRAL>
-3.41578

>  <SCORE.INTRA.DIHEDRAL.0>
6.58378

>  <SCORE.INTRA.POLAR>
0

>  <SCORE.INTRA.POLAR.0>
0

>  <SCORE.INTRA.REPUL>
0

>  <SCORE.INTRA.REPUL.0>
0

>  <SCORE.INTRA.SOLV>
0.0238507

>  <SCORE.INTRA.SOLV.lig_0>
-15.0499

>  <SCORE.INTRA.VDW>
1.15451

>  <SCORE.INTRA.VDW.0>
-1.72639

>  <SCORE.INTRA.norm>
-0.0386754

>  <SCORE.RESTR>
0

>  <SCORE.RESTR.CAVITY>
0

>  <SCORE.RESTR.norm>
0

>  <SCORE.SYSTEM>
-20.0125

>  <SCORE.SYSTEM.CONST>
0

>  <SCORE.SYSTEM.DIHEDRAL>
4.46106

>  <SCORE.SYSTEM.POLAR>
-3.0784

>  <SCORE.SYSTEM.SOLV>
-0.170399

>  <SCORE.SYSTEM.VDW>
-4.51059

>  <SCORE.SYSTEM.norm>
-1.42947

>  <SCORE.heavy>
14

>  <SCORE.norm>
-4.35194

$$$$
P59273005
 OpenBabel12072022113D
libRbt.so/2013.1/901 2013/11/27
 18 19  0  0  0  0  0  0  0  0999 V2000
  -25.8201   15.9773  -16.2056 C   0  0  0  0  0  0  0  0  0  0  0  0
  -27.3245   16.2269  -16.2554 C   0  0  0  0  0  0  0  0  0  0  0  0
  -28.0814   14.9053  -16.1621 C   0  0  0  0  0  0  0  0  0  0  0  0
  -27.7426   17.0199  -15.1373 O   0  0  0  0  0  0  0  0  0  0  0  0
  -29.0411   17.5008  -15.3559 N   0  0  0  0  0  0  0  0  0  0  0  0
  -29.9850   17.7422  -14.3525 C   0  0  0  0  0  0  0  0  0  0  0  0
  -31.1727   18.1296  -14.9737 C   0  0  0  0  0  0  0  0  0  0  0  0
  -30.9179   18.0699  -16.3314 C   0  0  0  0  0  0  0  0  0  0  0  0
  -29.6538   17.6836  -16.5479 C   0  0  0  0  0  0  0  0  0  0  0  0
  -29.3706   17.6144  -17.8608 O   0  0  0  0  0  0  0  0  0  0  0  0
  -30.5541   17.9822  -18.4738 C   0  0  0  0  0  0  0  0  0  0  0  0
  -31.5481   18.2772  -17.5423 C   0  0  0  0  0  0  0  0  0  0  0  0
  -32.3084   18.4761  -14.3413 N   0  0  0  0  0  0  0  0  0  0  0  0
  -29.6875   17.5793  -13.0356 N   0  0  0  0  0  0  0  0  0  0  0  0
  -33.1754   18.0176  -14.6050 H   0  0  0  0  0  0  0  0  0  0  0  0
  -32.2856   18.7475  -13.3635 H   0  0  0  0  0  0  0  0  0  0  0  0
  -29.7215   18.4061  -12.4398 H   0  0  0  0  0  0  0  0  0  0  0  0
  -28.9075   16.9703  -12.8036 H   0  0  0  0  0  0  0  0  0  0  0  0
  1  2  1  0  0  0  0
  2  3  1  0  0  0  0
  2  4  1  0  0  0  0
  4  5  1  0  0  0  0
  5  6  1  0  0  0  0
  5  9  1  0  0  0  0
  6  7  2  0  0  0  0
  6 14  1  0  0  0  0
  7  8  1  0  0  0  0
  7 13  1  0  0  0  0
  8  9  2  0  0  0  0
  8 12  1  0  0  0  0
  9 10  1  0  0  0  0
 10 11  1  0  0  0  0
 11 12  2  0  0  0  0
 13 15  1  0  0  0  0
 13 16  1  0  0  0  0
 14 17  1  0  0  0  0
 14 18  1  0  0  0  0
M  END
>  <CHROM.0>
-59.23238617,-174.42501100,60.68422016,-42.14834089,-59.12118295,-61.25891552
56.46317256,-61.66355454,-169.73232339

>  <CHROM.1>
166.21620077,148.57953032,116.68467614,-127.77192873,-29.45742312,17.33886020
-15.85095666,-0.11508597,-0.46768607,1.56175188

>  <Name>
P59273005

>  <RI>
0

>  <Rbt.Current_Directory>
/home/fstefaniak/projects/zuza/docking/adenine/4TZX

>  <Rbt.Executable>
rbdock ($Id: //depot/dev/client3/rdock/2013.1/src/exe/rbdock.cxx#4 $)

>  <Rbt.Library>
libRbt.so (2013.1, Build901 2013/11/27)

>  <Rbt.Parameter_File>
/home/fstefaniak/progs/rDock//data/scripts/dock_solv.prm

>  <Rbt.Receptor>
4tzx.prm

>  <SCORE>
-58.4043

>  <SCORE.INTER>
-38.9552

>  <SCORE.INTER.CONST>
1

>  <SCORE.INTER.POLAR>
-4.62066

>  <SCORE.INTER.ROT>
4

>  <SCORE.INTER.SOLV>
15.7126

>  <SCORE.INTER.VDW>
-22.0721

>  <SCORE.INTER.norm>
-2.78251

>  <SCORE.INTRA>
-0.502891

>  <SCORE.INTRA.DIHEDRAL>
-3.8531

>  <SCORE.INTRA.DIHEDRAL.0>
6.58378

>  <SCORE.INTRA.POLAR>
0

>  <SCORE.INTRA.POLAR.0>
0

>  <SCORE.INTRA.REPUL>
0

>  <SCORE.INTRA.REPUL.0>
0

>  <SCORE.INTRA.SOLV>
-0.0187107

>  <SCORE.INTRA.SOLV.lig_0>
-15.0499

>  <SCORE.INTRA.VDW>
1.43302

>  <SCORE.INTRA.VDW.0>
-1.72639

>  <SCORE.INTRA.norm>
-0.0359208

>  <SCORE.RESTR>
0

>  <SCORE.RESTR.CAVITY>
0

>  <SCORE.RESTR.norm>
0

>  <SCORE.SYSTEM>
-18.9462

>  <SCORE.SYSTEM.CONST>
0

>  <SCORE.SYSTEM.DIHEDRAL>
4.24565

>  <SCORE.SYSTEM.POLAR>
-3.02877

>  <SCORE.SYSTEM.SOLV>
0.0471666

>  <SCORE.SYSTEM.VDW>
-3.96586

>  <SCORE.SYSTEM.norm>
-1.3533

>  <SCORE.heavy>
14

>  <SCORE.norm>
-4.17174

$$$$
P59283247
 OpenBabel12072022113D
libRbt.so/2013.1/901 2013/11/27
 14 14  0  0  0  0  0  0  0  0999 V2000
  -30.7063   17.4375  -16.0498 C   0  0  0  0  0  0  0  0  0  0  0  0
  -29.2208   17.3194  -16.3775 C   0  0  0  0  0  0  0  0  0  0  0  0
  -28.5950   15.9664  -15.9874 C   0  0  1  0  0  0  0  0  0  0  0  0
  -29.0376   14.8541  -16.9353 C   0  0  0  0  0  0  0  0  0  0  0  0
  -27.8085   13.9595  -17.0435 C   0  0  1  0  0  0  0  0  0  0  0  0
  -26.7321   14.9518  -17.0107 N   0  0  0  0  0  0  0  0  0  0  0  0
  -27.1316   15.9672  -16.0492 N   0  0  0  0  0  0  0  0  0  0  0  0
  -25.4275   14.4177  -16.6246 C   0  0  0  0  0  0  0  0  0  0  0  0
  -27.7979   12.8613  -15.9753 C   0  0  0  0  0  0  0  0  0  0  0  0
  -27.8177   13.3296  -18.3146 O   0  0  0  0  0  0  0  0  0  0  0  0
  -28.9970   15.6346  -14.6649 O   0  0  0  0  0  0  0  0  0  0  0  0
  -26.7835   16.8857  -16.3236 H   0  0  0  0  0  0  0  0  0  0  0  0
  -27.8083   14.0815  -18.9315 H   0  0  0  0  0  0  0  0  0  0  0  0
  -28.7904   14.6973  -14.5214 H   0  0  0  0  0  0  0  0  0  0  0  0
  1  2  1  0  0  0  0
  3  2  1  6  0  0  0
  3  4  1  0  0  0  0
  3  7  1  0  0  0  0
  3 11  1  0  0  0  0
  4  5  1  0  0  0  0
  5  6  1  0  0  0  0
  5 10  1  0  0  0  0
  5  9  1  1  0  0  0
  6  7  1  0  0  0  0
  6  8  1  0  0  0  0
  7 12  1  0  0  0  0
 10 13  1  0  0  0  0
 11 14  1  0  0  0  0
M  END
>  <CHROM.0>
-59.10718578,-170.04233552,-66.84944824,-42.99021832,58.63137539,-173.76685067
-68.12533960,-62.36636153,-168.34166202

>  <CHROM.1>
73.48236917,165.73506320,59.20436342,-28.11227035,15.13920325,-16.45484383
2.27430091,-0.12575312,0.47594398

>  <Name>
P59283247

>  <RI>
0

>  <Rbt.Current_Directory>
/home/fstefaniak/projects/zuza/docking/adenine/4TZX

>  <Rbt.Executable>
rbdock ($Id: //depot/dev/client3/rdock/2013.1/src/exe/rbdock.cxx#4 $)

>  <Rbt.Library>
libRbt.so (2013.1, Build901 2013/11/27)

>  <Rbt.Parameter_File>
/home/fstefaniak/progs/rDock//data/scripts/dock_solv.prm

>  <Rbt.Receptor>
4tzx.prm

>  <SCORE>
-41.9228

>  <SCORE.INTER>
-22.1217

>  <SCORE.INTER.CONST>
1

>  <SCORE.INTER.POLAR>
-2.81934

>  <SCORE.INTER.ROT>
1

>  <SCORE.INTER.SOLV>
12.3213

>  <SCORE.INTER.VDW>
-13.7238

>  <SCORE.INTER.norm>
-2.01107

>  <SCORE.INTRA>
0.0700221

>  <SCORE.INTRA.DIHEDRAL>
-3.21869

>  <SCORE.INTRA.DIHEDRAL.0>
4.89001

>  <SCORE.INTRA.POLAR>
0

>  <SCORE.INTRA.POLAR.0>
0

>  <SCORE.INTRA.REPUL>
0

>  <SCORE.INTRA.REPUL.0>
0

>  <SCORE.INTRA.SOLV>
-0.124058

>  <SCORE.INTRA.SOLV.lig_0>
-14.1239

>  <SCORE.INTRA.VDW>
1.74139

>  <SCORE.INTRA.VDW.0>
0.411473

>  <SCORE.INTRA.norm>
0.00636564

>  <SCORE.RESTR>
0

>  <SCORE.RESTR.CAVITY>
0

>  <SCORE.RESTR.norm>
0

>  <SCORE.SYSTEM>
-19.871

>  <SCORE.SYSTEM.CONST>
0

>  <SCORE.SYSTEM.DIHEDRAL>
5.21003

>  <SCORE.SYSTEM.POLAR>
-3.05186

>  <SCORE.SYSTEM.SOLV>
-0.19107

>  <SCORE.SYSTEM.VDW>
-4.74748

>  <SCORE.SYSTEM.norm>
-1.80646

>  <SCORE.heavy>
11

>  <SCORE.norm>
-3.81116

$$$$
P59283247
 OpenBabel12072022113D
libRbt.so/2013.1/901 2013/11/27
 14 14  0  0  0  0  0  0  0  0999 V2000
  -30.7042   17.4490  -16.0762 C   0  0  0  0  0  0  0  0  0  0  0  0
  -29.2063   17.3489  -16.3490 C   0  0  0  0  0  0  0  0  0  0  0  0
  -28.5862   15.9900  -15.9703 C   0  0  1  0  0  0  0  0  0  0  0  0
  -29.0510   14.8834  -16.9142 C   0  0  0  0  0  0  0  0  0  0  0  0
  -27.8309   13.9790  -17.0413 C   0  0  1  0  0  0  0  0  0  0  0  0
  -26.7461   14.9625  -17.0216 N   0  0  0  0  0  0  0  0  0  0  0  0
  -27.1238   15.9791  -16.0526 N   0  0  0  0  0  0  0  0  0  0  0  0
  -25.4406   14.4169  -16.6549 C   0  0  0  0  0  0  0  0  0  0  0  0
  -27.8144   12.8785  -15.9756 C   0  0  0  0  0  0  0  0  0  0  0  0
  -27.8630   13.3519  -18.3134 O   0  0  0  0  0  0  0  0  0  0  0  0
  -28.9724   15.6587  -14.6430 O   0  0  0  0  0  0  0  0  0  0  0  0
  -26.7721   16.8953  -16.3299 H   0  0  0  0  0  0  0  0  0  0  0  0
  -27.8232   14.1038  -18.9292 H   0  0  0  0  0  0  0  0  0  0  0  0
  -28.7608   14.7224  -14.5005 H   0  0  0  0  0  0  0  0  0  0  0  0
  1  2  1  0  0  0  0
  3  2  1  6  0  0  0
  3  4  1  0  0  0  0
  3  7  1  0  0  0  0
  3 11  1  0  0  0  0
  4  5  1  0  0  0  0
  5  6  1  0  0  0  0
  5 10  1  0  0  0  0
  5  9  1  1  0  0  0
  6  7  1  0  0  0  0
  6  8  1  0  0  0  0
  7 12  1  0  0  0  0
 10 13  1  0  0  0  0
 11 14  1  0  0  0  0
M  END
>  <CHROM.0>
-61.90681011,-174.44697836,-64.93052641,-41.12988255,-55.94605574,-62.45483749
-72.01391082,59.39846565,-169.23654664

>  <CHROM.1>
70.04766175,166.46395937,61.19000657,-28.11821560,15.15717119,-16.45324867
2.26857372,-0.13342476,0.48249744

>  <Name>
P59283247

>  <RI>
0

>  <Rbt.Current_Directory>
/home/fstefaniak/projects/zuza/docking/adenine/4TZX

>  <Rbt.Executable>
rbdock ($Id: //depot/dev/client3/rdock/2013.1/src/exe/rbdock.cxx#4 $)

>  <Rbt.Library>
libRbt.so (2013.1, Build901 2013/11/27)

>  <Rbt.Parameter_File>
/home/fstefaniak/progs/rDock//data/scripts/dock_solv.prm

>  <Rbt.Receptor>
4tzx.prm

>  <SCORE>
-41.9038

>  <SCORE.INTER>
-21.7648

>  <SCORE.INTER.CONST>
1

>  <SCORE.INTER.POLAR>
-2.80116

>  <SCORE.INTER.ROT>
1

>  <SCORE.INTER.SOLV>
12.3759

>  <SCORE.INTER.VDW>
-13.5646

>  <SCORE.INTER.norm>
-1.97861

>  <SCORE.INTRA>
-0.162149

>  <SCORE.INTRA.DIHEDRAL>
-3.50498

>  <SCORE.INTRA.DIHEDRAL.0>
4.89001

>  <SCORE.INTRA.POLAR>
0

>  <SCORE.INTRA.POLAR.0>
0

>  <SCORE.INTRA.REPUL>
0

>  <SCORE.INTRA.REPUL.0>
0

>  <SCORE.INTRA.SOLV>
-0.126928

>  <SCORE.INTRA.SOLV.lig_0>
-14.1239

>  <SCORE.INTRA.VDW>
1.6538

>  <SCORE.INTRA.VDW.0>
0.411473

>  <SCORE.INTRA.norm>
-0.0147408

>  <SCORE.RESTR>
0

>  <SCORE.RESTR.CAVITY>
0

>  <SCORE.RESTR.norm>
0

>  <SCORE.SYSTEM>
-19.9769

>  <SCORE.SYSTEM.CONST>
0

>  <SCORE.SYSTEM.DIHEDRAL>
5.22498

>  <SCORE.SYSTEM.POLAR>
-3.06883

>  <SCORE.SYSTEM.SOLV>
-0.0198586

>  <SCORE.SYSTEM.VDW>
-4.82355

>  <SCORE.SYSTEM.norm>
-1.81608

>  <SCORE.heavy>
11

>  <SCORE.norm>
-3.80944

$$$$
P59283247
 OpenBabel12072022113D
libRbt.so/2013.1/901 2013/11/27
 14 14  0  0  0  0  0  0  0  0999 V2000
  -30.3892   17.9628  -15.7820 C   0  0  0  0  0  0  0  0  0  0  0  0
  -29.9297   16.8975  -16.7730 C   0  0  0  0  0  0  0  0  0  0  0  0
  -29.0140   15.8200  -16.1606 C   0  0  1  0  0  0  0  0  0  0  0  0
  -28.8975   14.6028  -17.0751 C   0  0  0  0  0  0  0  0  0  0  0  0
  -27.4592   14.1384  -16.8791 C   0  0  1  0  0  0  0  0  0  0  0  0
  -26.7651   15.4196  -16.7342 N   0  0  0  0  0  0  0  0  0  0  0  0
  -27.6391   16.2801  -15.9526 N   0  0  0  0  0  0  0  0  0  0  0  0
  -25.4654   15.3328  -16.0711 C   0  0  0  0  0  0  0  0  0  0  0  0
  -27.3302   13.1251  -15.7374 C   0  0  0  0  0  0  0  0  0  0  0  0
  -27.0208   13.5077  -18.0718 O   0  0  0  0  0  0  0  0  0  0  0  0
  -29.5534   15.4100  -14.9109 O   0  0  0  0  0  0  0  0  0  0  0  0
  -27.5390   17.2547  -16.2358 H   0  0  0  0  0  0  0  0  0  0  0  0
  -27.0143   14.2370  -18.7154 H   0  0  0  0  0  0  0  0  0  0  0  0
  -29.0569   14.6290  -14.6187 H   0  0  0  0  0  0  0  0  0  0  0  0
  1  2  1  0  0  0  0
  3  2  1  6  0  0  0
  3  4  1  0  0  0  0
  3  7  1  0  0  0  0
  3 11  1  0  0  0  0
  4  5  1  0  0  0  0
  5  6  1  0  0  0  0
  5 10  1  0  0  0  0
  5  9  1  1  0  0  0
  6  7  1  0  0  0  0
  6  8  1  0  0  0  0
  7 12  1  0  0  0  0
 10 13  1  0  0  0  0
 11 14  1  0  0  0  0
M  END
>  <CHROM.0>
-60.01387868,-171.27680606,-65.58821958,-43.18541453,-175.58780306,-58.75997489
-67.16721020,-55.01504441,-168.16971014

>  <CHROM.1>
164.65626752,170.12925031,65.75968436,-28.12186509,15.30910576,-16.36937455
-2.37383599,-0.01523862,-2.84811724

>  <Name>
P59283247

>  <RI>
0

>  <Rbt.Current_Directory>
/home/fstefaniak/projects/zuza/docking/adenine/4TZX

>  <Rbt.Executable>
rbdock ($Id: //depot/dev/client3/rdock/2013.1/src/exe/rbdock.cxx#4 $)

>  <Rbt.Library>
libRbt.so (2013.1, Build901 2013/11/27)

>  <Rbt.Parameter_File>
/home/fstefaniak/progs/rDock//data/scripts/dock_solv.prm

>  <Rbt.Receptor>
4tzx.prm

>  <SCORE>
-40.0485

>  <SCORE.INTER>
-18.5377

>  <SCORE.INTER.CONST>
1

>  <SCORE.INTER.POLAR>
-2.56052

>  <SCORE.INTER.ROT>
1

>  <SCORE.INTER.SOLV>
11.8048

>  <SCORE.INTER.VDW>
-12.025

>  <SCORE.INTER.norm>
-1.68524

>  <SCORE.INTRA>
-0.486125

>  <SCORE.INTRA.DIHEDRAL>
-2.97556

>  <SCORE.INTRA.DIHEDRAL.0>
4.89001

>  <SCORE.INTRA.POLAR>
0

>  <SCORE.INTRA.POLAR.0>
0

>  <SCORE.INTRA.REPUL>
0

>  <SCORE.INTRA.REPUL.0>
0

>  <SCORE.INTRA.SOLV>
0.0532558

>  <SCORE.INTRA.SOLV.lig_0>
-14.1239

>  <SCORE.INTRA.VDW>
0.975028

>  <SCORE.INTRA.VDW.0>
0.411473

>  <SCORE.INTRA.norm>
-0.0441931

>  <SCORE.RESTR>
0

>  <SCORE.RESTR.CAVITY>
0

>  <SCORE.RESTR.norm>
0

>  <SCORE.SYSTEM>
-21.0247

>  <SCORE.SYSTEM.CONST>
0

>  <SCORE.SYSTEM.DIHEDRAL>
4.95058

>  <SCORE.SYSTEM.POLAR>
-3.06095

>  <SCORE.SYSTEM.SOLV>
-0.023175

>  <SCORE.SYSTEM.VDW>
-5.45572

>  <SCORE.SYSTEM.norm>
-1.91133

>  <SCORE.heavy>
11

>  <SCORE.norm>
-3.64077

$$$$
P59287310
 OpenBabel12072022113D
libRbt.so/2013.1/901 2013/11/27
 17 17  0  0  0  0  0  0  0  0999 V2000
  -26.4936   11.9250  -14.9892 C   0  0  0  0  0  0  0  0  0  0  0  0
  -27.9469   11.8968  -15.4462 C   0  0  0  0  0  0  0  0  0  0  0  0
  -28.2983   13.1291  -16.2758 C   0  0  0  0  0  0  0  0  0  0  0  0
  -27.3286   13.3734  -17.4406 C   0  0  1  0  0  0  0  0  0  0  0  0
  -25.8417   13.3050  -17.0325 C   0  0  2  0  0  0  0  0  0  0  0  0
  -25.5341   12.0724  -16.1678 C   0  0  0  0  0  0  0  0  0  0  0  0
  -25.4619   14.6143  -16.3443 C   0  0  0  0  0  0  0  0  0  0  0  0
  -25.4201   14.7119  -15.1197 O   0  0  0  0  0  0  0  0  0  0  0  0
  -25.2323   15.6844  -17.1926 N   0  0  0  0  0  0  0  0  0  0  0  0
  -24.7726   16.9005  -16.6515 N   0  0  0  0  0  0  0  0  0  0  0  0
  -27.6069   12.3364  -18.4952 N   0  3  0  0  0  0  0  0  0  0  0  0
  -27.8141   11.4075  -18.1058 H   0  0  0  0  0  0  0  0  0  0  0  0
  -28.4210   12.6127  -19.0629 H   0  0  0  0  0  0  0  0  0  0  0  0
  -26.8179   12.2379  -19.1483 H   0  0  0  0  0  0  0  0  0  0  0  0
  -25.1802   15.5756  -18.2044 H   0  0  0  0  0  0  0  0  0  0  0  0
  -25.5036   17.6133  -16.7880 H   0  0  0  0  0  0  0  0  0  0  0  0
  -23.9879   17.2409  -17.2157 H   0  0  0  0  0  0  0  0  0  0  0  0
  1  2  1  0  0  0  0
  1  6  1  0  0  0  0
  2  3  1  0  0  0  0
  3  4  1  0  0  0  0
  4  5  1  0  0  0  0
  4 11  1  6  0  0  0
  5  6  1  0  0  0  0
  5  7  1  1  0  0  0
  7  8  2  0  0  0  0
  7  9  1  0  0  0  0
  9 10  1  0  0  0  0
  9 15  1  0  0  0  0
 10 16  1  0  0  0  0
 10 17  1  0  0  0  0
 11 12  1  0  0  0  0
 11 13  1  0  0  0  0
 11 14  1  0  0  0  0
M  CHG  1  11   1
M  END
>  <CHROM.0>
-59.68145633,-60.49014034,-65.03260146,-42.40932974,-58.78473562,-60.56484026
-67.47404595,-64.43404596,-168.57326521

>  <CHROM.1>
-39.14101968,98.86259878,-114.59308403,-26.35222164,13.66709936,-16.50516458
-2.62170546,-0.90605297,-0.96751459

>  <Name>
P59287310

>  <RI>
0

>  <Rbt.Current_Directory>
/home/fstefaniak/projects/zuza/docking/adenine/4TZX

>  <Rbt.Executable>
rbdock ($Id: //depot/dev/client3/rdock/2013.1/src/exe/rbdock.cxx#4 $)

>  <Rbt.Library>
libRbt.so (2013.1, Build901 2013/11/27)

>  <Rbt.Parameter_File>
/home/fstefaniak/progs/rDock//data/scripts/dock_solv.prm

>  <Rbt.Receptor>
4tzx.prm

>  <SCORE>
-53.0533

>  <SCORE.INTER>
-32.5194

>  <SCORE.INTER.CONST>
1

>  <SCORE.INTER.POLAR>
-4.99542

>  <SCORE.INTER.ROT>
2

>  <SCORE.INTER.SOLV>
17.3658

>  <SCORE.INTER.VDW>
-15.7501

>  <SCORE.INTER.norm>
-2.95631

>  <SCORE.INTRA>
0.590703

>  <SCORE.INTRA.DIHEDRAL>
1.91613

>  <SCORE.INTRA.DIHEDRAL.0>
0.966352

>  <SCORE.INTRA.POLAR>
0

>  <SCORE.INTRA.POLAR.0>
0

>  <SCORE.INTRA.REPUL>
0

>  <SCORE.INTRA.REPUL.0>
0

>  <SCORE.INTRA.SOLV>
-0.192843

>  <SCORE.INTRA.SOLV.lig_0>
-34.6387

>  <SCORE.INTRA.VDW>
-0.270939

>  <SCORE.INTRA.VDW.0>
-0.482853

>  <SCORE.INTRA.norm>
0.0537003

>  <SCORE.RESTR>
0

>  <SCORE.RESTR.CAVITY>
0

>  <SCORE.RESTR.norm>
0

>  <SCORE.SYSTEM>
-21.1247

>  <SCORE.SYSTEM.CONST>
0

>  <SCORE.SYSTEM.DIHEDRAL>
4.546

>  <SCORE.SYSTEM.POLAR>
-3.06209

>  <SCORE.SYSTEM.SOLV>
0.181582

>  <SCORE.SYSTEM.VDW>
-5.452

>  <SCORE.SYSTEM.norm>
-1.92043

>  <SCORE.heavy>
11

>  <SCORE.norm>
-4.82303

$$$$
P59287310
 OpenBabel12072022113D
libRbt.so/2013.1/901 2013/11/27
 17 17  0  0  0  0  0  0  0  0999 V2000
  -26.5089   11.9132  -15.0022 C   0  0  0  0  0  0  0  0  0  0  0  0
  -27.9608   11.8935  -15.4642 C   0  0  0  0  0  0  0  0  0  0  0  0
  -28.3048   13.1326  -16.2866 C   0  0  0  0  0  0  0  0  0  0  0  0
  -27.3303   13.3812  -17.4465 C   0  0  1  0  0  0  0  0  0  0  0  0
  -25.8450   13.3044  -17.0339 C   0  0  2  0  0  0  0  0  0  0  0  0
  -25.5449   12.0649  -16.1765 C   0  0  0  0  0  0  0  0  0  0  0  0
  -25.4627   14.6077  -16.3357 C   0  0  0  0  0  0  0  0  0  0  0  0
  -25.4342   14.6997  -15.1102 O   0  0  0  0  0  0  0  0  0  0  0  0
  -25.2147   15.6795  -17.1765 N   0  0  0  0  0  0  0  0  0  0  0  0
  -24.7515   16.8895  -16.6247 N   0  0  0  0  0  0  0  0  0  0  0  0
  -27.6089   12.3523  -18.5090 N   0  3  0  0  0  0  0  0  0  0  0  0
  -28.4053   12.5971  -19.1115 H   0  0  0  0  0  0  0  0  0  0  0  0
  -26.7897   12.2419  -19.1240 H   0  0  0  0  0  0  0  0  0  0  0  0
  -27.7925   11.4257  -18.1012 H   0  0  0  0  0  0  0  0  0  0  0  0
  -25.1518   15.5747  -18.1881 H   0  0  0  0  0  0  0  0  0  0  0  0
  -25.4919   17.5981  -16.7290 H   0  0  0  0  0  0  0  0  0  0  0  0
  -23.9847   17.2474  -17.2026 H   0  0  0  0  0  0  0  0  0  0  0  0
  1  2  1  0  0  0  0
  1  6  1  0  0  0  0
  2  3  1  0  0  0  0
  3  4  1  0  0  0  0
  4  5  1  0  0  0  0
  4 11  1  6  0  0  0
  5  6  1  0  0  0  0
  5  7  1  1  0  0  0
  7  8  2  0  0  0  0
  7  9  1  0  0  0  0
  9 10  1  0  0  0  0
  9 15  1  0  0  0  0
 10 16  1  0  0  0  0
 10 17  1  0  0  0  0
 11 12  1  0  0  0  0
 11 13  1  0  0  0  0
 11 14  1  0  0  0  0
M  CHG  1  11   1
M  END
>  <CHROM.0>
-58.06895457,-175.94627503,-68.00693740,-42.31307729,-55.64400924,-61.04112747
-64.64250695,58.27892165,-168.36379414

>  <CHROM.1>
81.40467775,98.31470109,-112.10158688,-26.35432381,13.66425772,-16.50561477
-2.63554061,-0.90585812,-0.97410124

>  <Name>
P59287310

>  <RI>
0

>  <Rbt.Current_Directory>
/home/fstefaniak/projects/zuza/docking/adenine/4TZX

>  <Rbt.Executable>
rbdock ($Id: //depot/dev/client3/rdock/2013.1/src/exe/rbdock.cxx#4 $)

>  <Rbt.Library>
libRbt.so (2013.1, Build901 2013/11/27)

>  <Rbt.Parameter_File>
/home/fstefaniak/progs/rDock//data/scripts/dock_solv.prm

>  <Rbt.Receptor>
4tzx.prm

>  <SCORE>
-51.5751

>  <SCORE.INTER>
-32.3259

>  <SCORE.INTER.CONST>
1

>  <SCORE.INTER.POLAR>
-5.05554

>  <SCORE.INTER.ROT>
2

>  <SCORE.INTER.SOLV>
17.1686

>  <SCORE.INTER.VDW>
-15.355

>  <SCORE.INTER.norm>
-2.93871

>  <SCORE.INTRA>
0.758576

>  <SCORE.INTRA.DIHEDRAL>
1.9907

>  <SCORE.INTRA.DIHEDRAL.0>
0.966352

>  <SCORE.INTRA.POLAR>
0

>  <SCORE.INTRA.POLAR.0>
0

>  <SCORE.INTRA.REPUL>
0

>  <SCORE.INTRA.REPUL.0>
0

>  <SCORE.INTRA.SOLV>
-0.107699

>  <SCORE.INTRA.SOLV.lig_0>
-34.6387

>  <SCORE.INTRA.VDW>
-0.182922

>  <SCORE.INTRA.VDW.0>
-0.482853

>  <SCORE.INTRA.norm>
0.0689614

>  <SCORE.RESTR>
0

>  <SCORE.RESTR.CAVITY>
0

>  <SCORE.RESTR.norm>
0

>  <SCORE.SYSTEM>
-20.0078

>  <SCORE.SYSTEM.CONST>
0

>  <SCORE.SYSTEM.DIHEDRAL>
4.70228

>  <SCORE.SYSTEM.POLAR>
-3.07518

>  <SCORE.SYSTEM.SOLV>
-0.00265221

>  <SCORE.SYSTEM.VDW>
-4.65448

>  <SCORE.SYSTEM.norm>
-1.81889

>  <SCORE.heavy>
11

>  <SCORE.norm>
-4.68864

$$$$
P59287310
 OpenBabel12072022113D
libRbt.so/2013.1/901 2013/11/27
 17 17  0  0  0  0  0  0  0  0999 V2000
  -26.5214   11.8892  -14.9863 C   0  0  0  0  0  0  0  0  0  0  0  0
  -27.9730   11.8946  -15.4497 C   0  0  0  0  0  0  0  0  0  0  0  0
  -28.2926   13.1357  -16.2790 C   0  0  0  0  0  0  0  0  0  0  0  0
  -27.3125   13.3595  -17.4392 C   0  0  1  0  0  0  0  0  0  0  0  0
  -25.8294   13.2568  -17.0248 C   0  0  2  0  0  0  0  0  0  0  0  0
  -25.5536   12.0163  -16.1605 C   0  0  0  0  0  0  0  0  0  0  0  0
  -25.4230   14.5562  -16.3331 C   0  0  0  0  0  0  0  0  0  0  0  0
  -25.4235   14.6637  -15.1086 O   0  0  0  0  0  0  0  0  0  0  0  0
  -25.1183   15.6081  -17.1805 N   0  0  0  0  0  0  0  0  0  0  0  0
  -24.6304   16.8098  -16.6319 N   0  0  0  0  0  0  0  0  0  0  0  0
  -27.6097   12.3304  -18.4966 N   0  3  0  0  0  0  0  0  0  0  0  0
  -27.8102   11.3987  -18.1106 H   0  0  0  0  0  0  0  0  0  0  0  0
  -28.4337   12.6111  -19.0476 H   0  0  0  0  0  0  0  0  0  0  0  0
  -26.8324   12.2368  -19.1642 H   0  0  0  0  0  0  0  0  0  0  0  0
  -25.0325   15.4877  -18.1887 H   0  0  0  0  0  0  0  0  0  0  0  0
  -25.3747   17.5193  -16.6913 H   0  0  0  0  0  0  0  0  0  0  0  0
  -23.8907   17.1770  -17.2387 H   0  0  0  0  0  0  0  0  0  0  0  0
  1  2  1  0  0  0  0
  1  6  1  0  0  0  0
  2  3  1  0  0  0  0
  3  4  1  0  0  0  0
  4  5  1  0  0  0  0
  4 11  1  6  0  0  0
  5  6  1  0  0  0  0
  5  7  1  1  0  0  0
  7  8  2  0  0  0  0
  7  9  1  0  0  0  0
  9 10  1  0  0  0  0
  9 15  1  0  0  0  0
 10 16  1  0  0  0  0
 10 17  1  0  0  0  0
 11 12  1  0  0  0  0
 11 13  1  0  0  0  0
 11 14  1  0  0  0  0
M  CHG  1  11   1
M  END
>  <CHROM.0>
-58.95854254,65.00138826,-72.22959368,-42.92441386,-173.36633154,-175.67420801
-170.81528623,-59.37530808,-168.12885797

>  <CHROM.1>
-40.98469538,96.61137204,-107.28411206,-26.32862350,13.62800108,-16.49892617
-2.66917826,-0.89011564,-1.01091077

>  <Name>
P59287310

>  <RI>
0

>  <Rbt.Current_Directory>
/home/fstefaniak/projects/zuza/docking/adenine/4TZX

>  <Rbt.Executable>
rbdock ($Id: //depot/dev/client3/rdock/2013.1/src/exe/rbdock.cxx#4 $)

>  <Rbt.Library>
libRbt.so (2013.1, Build901 2013/11/27)

>  <Rbt.Parameter_File>
/home/fstefaniak/progs/rDock//data/scripts/dock_solv.prm

>  <Rbt.Receptor>
4tzx.prm

>  <SCORE>
-50.9635

>  <SCORE.INTER>
-32.0174

>  <SCORE.INTER.CONST>
1

>  <SCORE.INTER.POLAR>
-5.01103

>  <SCORE.INTER.ROT>
2

>  <SCORE.INTER.SOLV>
17.3318

>  <SCORE.INTER.VDW>
-15.3521

>  <SCORE.INTER.norm>
-2.91067

>  <SCORE.INTRA>
0.532603

>  <SCORE.INTRA.DIHEDRAL>
1.92088

>  <SCORE.INTRA.DIHEDRAL.0>
0.966352

>  <SCORE.INTRA.POLAR>
0

>  <SCORE.INTRA.POLAR.0>
0

>  <SCORE.INTRA.REPUL>
0

>  <SCORE.INTRA.REPUL.0>
0

>  <SCORE.INTRA.SOLV>
-0.210747

>  <SCORE.INTRA.SOLV.lig_0>
-34.6387

>  <SCORE.INTRA.VDW>
-0.322465

>  <SCORE.INTRA.VDW.0>
-0.482853

>  <SCORE.INTRA.norm>
0.0484185

>  <SCORE.RESTR>
0.00312485

>  <SCORE.RESTR.CAVITY>
0.00312485

>  <SCORE.RESTR.norm>
0.000284077

>  <SCORE.SYSTEM>
-19.4819

>  <SCORE.SYSTEM.CONST>
0

>  <SCORE.SYSTEM.DIHEDRAL>
5.49778

>  <SCORE.SYSTEM.POLAR>
-3.03723

>  <SCORE.SYSTEM.SOLV>
-0.102257

>  <SCORE.SYSTEM.VDW>
-4.66232

>  <SCORE.SYSTEM.norm>
-1.77108

>  <SCORE.heavy>
11

>  <SCORE.norm>
-4.63305

$$$$
P59289755
 OpenBabel12072022113D
libRbt.so/2013.1/901 2013/11/27
 14 14  0  0  0  0  0  0  0  0999 V2000
  -27.2052   12.3052  -15.3802 C   0  0  0  0  0  0  0  0  0  0  0  0
  -26.1143   13.0565  -14.7452 N   0  0  0  0  0  0  0  0  0  0  0  0
  -25.2277   12.1537  -13.9881 C   0  0  0  0  0  0  0  0  0  0  0  0
  -24.3626   11.2398  -14.8631 C   0  0  0  0  0  0  0  0  0  0  0  0
  -23.5750   12.0310  -15.9028 C   0  0  0  0  0  0  0  0  0  0  0  0
  -24.4772   12.9889  -16.6764 C   0  0  0  0  0  0  0  0  0  0  0  0
  -25.3044   13.8518  -15.7154 C   0  0  1  0  0  0  0  0  0  0  0  0
  -26.1695   14.8930  -16.4523 C   0  0  0  0  0  0  0  0  0  0  0  0
  -27.3961   14.9485  -16.3881 O   0  0  0  0  0  0  0  0  0  0  0  0
  -25.4123   15.7370  -17.2647 N   0  0  0  0  0  0  0  0  0  0  0  0
  -24.7017   16.8101  -16.6810 N   0  0  0  0  0  0  0  0  0  0  0  0
  -25.0852   15.3366  -18.1473 H   0  0  0  0  0  0  0  0  0  0  0  0
  -25.3834   17.5627  -16.5137 H   0  0  0  0  0  0  0  0  0  0  0  0
  -24.0926   17.1995  -17.4064 H   0  0  0  0  0  0  0  0  0  0  0  0
  1  2  1  0  0  0  0
  2  3  1  0  0  0  0
  2  7  1  0  0  0  0
  3  4  1  0  0  0  0
  4  5  1  0  0  0  0
  5  6  1  0  0  0  0
  6  7  1  0  0  0  0
  7  8  1  6  0  0  0
  8  9  2  0  0  0  0
  8 10  1  0  0  0  0
 10 11  1  0  0  0  0
 10 12  1  0  0  0  0
 11 13  1  0  0  0  0
 11 14  1  0  0  0  0
M  END
>  <CHROM.0>
-61.08887912,59.50491762,-60.53081376,-43.50872641,-56.62032894,178.89709973
-67.32855894,-174.77450223,-168.86881767

>  <CHROM.1>
-9.06552576,-78.90180908,-79.34377621,-25.46556918,13.68650235,-15.84957751
1.41393510,-0.20032646,2.67976541

>  <Name>
P59289755

>  <RI>
0

>  <Rbt.Current_Directory>
/home/fstefaniak/projects/zuza/docking/adenine/4TZX

>  <Rbt.Executable>
rbdock ($Id: //depot/dev/client3/rdock/2013.1/src/exe/rbdock.cxx#4 $)

>  <Rbt.Library>
libRbt.so (2013.1, Build901 2013/11/27)

>  <Rbt.Parameter_File>
/home/fstefaniak/progs/rDock//data/scripts/dock_solv.prm

>  <Rbt.Receptor>
4tzx.prm

>  <SCORE>
-49.4756

>  <SCORE.INTER>
-29.4595

>  <SCORE.INTER.CONST>
1

>  <SCORE.INTER.POLAR>
-4.97793

>  <SCORE.INTER.ROT>
3

>  <SCORE.INTER.SOLV>
11.5345

>  <SCORE.INTER.VDW>
-12.4914

>  <SCORE.INTER.norm>
-2.67814

>  <SCORE.INTRA>
-0.204155

>  <SCORE.INTRA.DIHEDRAL>
-0.466384

>  <SCORE.INTRA.DIHEDRAL.0>
2.54896

>  <SCORE.INTRA.POLAR>
0.0497922

>  <SCORE.INTRA.POLAR.0>
-0.0497922

>  <SCORE.INTRA.REPUL>
0

>  <SCORE.INTRA.REPUL.0>
0

>  <SCORE.INTRA.SOLV>
-0.507279

>  <SCORE.INTRA.SOLV.lig_0>
-15.5506

>  <SCORE.INTRA.VDW>
0.113383

>  <SCORE.INTRA.VDW.0>
-0.426824

>  <SCORE.INTRA.norm>
-0.0185596

>  <SCORE.RESTR>
0.221102

>  <SCORE.RESTR.CAVITY>
0.221102

>  <SCORE.RESTR.norm>
0.0201002

>  <SCORE.SYSTEM>
-20.0331

>  <SCORE.SYSTEM.CONST>
0

>  <SCORE.SYSTEM.DIHEDRAL>
4.32551

>  <SCORE.SYSTEM.POLAR>
-3.04824

>  <SCORE.SYSTEM.SOLV>
0.00491211

>  <SCORE.SYSTEM.VDW>
-4.63808

>  <SCORE.SYSTEM.norm>
-1.82119

>  <SCORE.heavy>
11

>  <SCORE.norm>
-4.49779

$$$$
P59289755
 OpenBabel12072022113D
libRbt.so/2013.1/901 2013/11/27
 14 14  0  0  0  0  0  0  0  0999 V2000
  -28.2003   13.4916  -17.7026 C   0  0  0  0  0  0  0  0  0  0  0  0
  -27.9720   13.7555  -16.2758 N   0  0  0  0  0  0  0  0  0  0  0  0
  -26.7377   13.0955  -15.8117 C   0  0  0  0  0  0  0  0  0  0  0  0
  -25.4467   13.7269  -16.3443 C   0  0  0  0  0  0  0  0  0  0  0  0
  -25.3967   15.2275  -16.0738 C   0  0  0  0  0  0  0  0  0  0  0  0
  -26.6800   15.9193  -16.5262 C   0  0  0  0  0  0  0  0  0  0  0  0
  -27.9117   15.2111  -15.9485 C   0  0  1  0  0  0  0  0  0  0  0  0
  -29.2282   15.9259  -16.3112 C   0  0  0  0  0  0  0  0  0  0  0  0
  -29.3794   16.6471  -17.2956 O   0  0  0  0  0  0  0  0  0  0  0  0
  -30.2263   15.7219  -15.3584 N   0  0  0  0  0  0  0  0  0  0  0  0
  -30.5134   16.7420  -14.4233 N   0  0  0  0  0  0  0  0  0  0  0  0
  -30.9530   15.0463  -15.6065 H   0  0  0  0  0  0  0  0  0  0  0  0
  -31.2345   17.3408  -14.8480 H   0  0  0  0  0  0  0  0  0  0  0  0
  -29.6928   17.3532  -14.3813 H   0  0  0  0  0  0  0  0  0  0  0  0
  1  2  1  0  0  0  0
  2  3  1  0  0  0  0
  2  7  1  0  0  0  0
  3  4  1  0  0  0  0
  4  5  1  0  0  0  0
  5  6  1  0  0  0  0
  6  7  1  0  0  0  0
  7  8  1  6  0  0  0
  8  9  2  0  0  0  0
  8 10  1  0  0  0  0
 10 11  1  0  0  0  0
 10 12  1  0  0  0  0
 11 13  1  0  0  0  0
 11 14  1  0  0  0  0
M  END
>  <CHROM.0>
-62.35916467,175.31949051,-68.08905028,-43.01101916,-176.05531187,-64.63548290
-67.26779071,-176.64253059,-167.86493813

>  <CHROM.1>
-103.90085068,101.79321994,89.45227126,-28.02589395,15.06943647,-16.18828104
0.57187199,-0.00360884,-2.81638430

>  <Name>
P59289755

>  <RI>
0

>  <Rbt.Current_Directory>
/home/fstefaniak/projects/zuza/docking/adenine/4TZX

>  <Rbt.Executable>
rbdock ($Id: //depot/dev/client3/rdock/2013.1/src/exe/rbdock.cxx#4 $)

>  <Rbt.Library>
libRbt.so (2013.1, Build901 2013/11/27)

>  <Rbt.Parameter_File>
/home/fstefaniak/progs/rDock//data/scripts/dock_solv.prm

>  <Rbt.Receptor>
4tzx.prm

>  <SCORE>
-47.1565

>  <SCORE.INTER>
-25.5888

>  <SCORE.INTER.CONST>
1

>  <SCORE.INTER.POLAR>
-3.70244

>  <SCORE.INTER.ROT>
3

>  <SCORE.INTER.SOLV>
12.5182

>  <SCORE.INTER.VDW>
-14.4905

>  <SCORE.INTER.norm>
-2.32626

>  <SCORE.INTRA>
-0.597509

>  <SCORE.INTRA.DIHEDRAL>
-0.144376

>  <SCORE.INTRA.DIHEDRAL.0>
2.54896

>  <SCORE.INTRA.POLAR>
0.0497922

>  <SCORE.INTRA.POLAR.0>
-0.0497922

>  <SCORE.INTRA.REPUL>
0

>  <SCORE.INTRA.REPUL.0>
0

>  <SCORE.INTRA.SOLV>
-0.395012

>  <SCORE.INTRA.SOLV.lig_0>
-15.5506

>  <SCORE.INTRA.VDW>
-0.497108

>  <SCORE.INTRA.VDW.0>
-0.426824

>  <SCORE.INTRA.norm>
-0.054319

>  <SCORE.RESTR>
0

>  <SCORE.RESTR.CAVITY>
0

>  <SCORE.RESTR.norm>
0

>  <SCORE.SYSTEM>
-20.9702

>  <SCORE.SYSTEM.CONST>
0

>  <SCORE.SYSTEM.DIHEDRAL>
4.94709

>  <SCORE.SYSTEM.POLAR>
-3.03426

>  <SCORE.SYSTEM.SOLV>
-0.168287

>  <SCORE.SYSTEM.VDW>
-5.45884

>  <SCORE.SYSTEM.norm>
-1.90638

>  <SCORE.heavy>
11

>  <SCORE.norm>
-4.28695

$$$$
P59289755
 OpenBabel12072022113D
libRbt.so/2013.1/901 2013/11/27
 14 14  0  0  0  0  0  0  0  0999 V2000
  -27.4742   12.1449  -16.0415 C   0  0  0  0  0  0  0  0  0  0  0  0
  -26.6191   12.7608  -15.0183 N   0  0  0  0  0  0  0  0  0  0  0  0
  -26.2366   11.7738  -13.9916 C   0  0  0  0  0  0  0  0  0  0  0  0
  -25.2420   10.7132  -14.4763 C   0  0  0  0  0  0  0  0  0  0  0  0
  -24.0071   11.3437  -15.1126 C   0  0  0  0  0  0  0  0  0  0  0  0
  -24.3893   12.3867  -16.1595 C   0  0  0  0  0  0  0  0  0  0  0  0
  -25.3903   13.3950  -15.5817 C   0  0  1  0  0  0  0  0  0  0  0  0
  -25.7409   14.5167  -16.5789 C   0  0  0  0  0  0  0  0  0  0  0  0
  -26.4363   14.3635  -17.5813 O   0  0  0  0  0  0  0  0  0  0  0  0
  -25.1244   15.7265  -16.2595 N   0  0  0  0  0  0  0  0  0  0  0  0
  -24.7245   16.5982  -17.2977 N   0  0  0  0  0  0  0  0  0  0  0  0
  -25.3357   16.1080  -15.3343 H   0  0  0  0  0  0  0  0  0  0  0  0
  -25.3867   17.3859  -17.2967 H   0  0  0  0  0  0  0  0  0  0  0  0
  -24.9222   16.1238  -18.1835 H   0  0  0  0  0  0  0  0  0  0  0  0
  1  2  1  0  0  0  0
  2  3  1  0  0  0  0
  2  7  1  0  0  0  0
  3  4  1  0  0  0  0
  4  5  1  0  0  0  0
  5  6  1  0  0  0  0
  6  7  1  0  0  0  0
  7  8  1  6  0  0  0
  8  9  2  0  0  0  0
  8 10  1  0  0  0  0
 10 11  1  0  0  0  0
 10 12  1  0  0  0  0
 11 13  1  0  0  0  0
 11 14  1  0  0  0  0
M  END
>  <CHROM.0>
-54.66715005,56.54801864,-41.91365478,-42.52047656,-55.24920426,-56.90355049
-62.89758849,-175.69556919,-168.18089286

>  <CHROM.1>
-57.03268835,146.59415292,106.55349495,-25.59546285,13.29988759,-15.86371883
1.61960802,0.10660912,2.65296724

>  <Name>
P59289755

>  <RI>
0

>  <Rbt.Current_Directory>
/home/fstefaniak/projects/zuza/docking/adenine/4TZX

>  <Rbt.Executable>
rbdock ($Id: //depot/dev/client3/rdock/2013.1/src/exe/rbdock.cxx#4 $)

>  <Rbt.Library>
libRbt.so (2013.1, Build901 2013/11/27)

>  <Rbt.Parameter_File>
/home/fstefaniak/progs/rDock//data/scripts/dock_solv.prm

>  <Rbt.Receptor>
4tzx.prm

>  <SCORE>
-41.0168

>  <SCORE.INTER>
-22.1181

>  <SCORE.INTER.CONST>
1

>  <SCORE.INTER.POLAR>
-3.73681

>  <SCORE.INTER.ROT>
3

>  <SCORE.INTER.SOLV>
11.0085

>  <SCORE.INTER.VDW>
-11.5589

>  <SCORE.INTER.norm>
-2.01073

>  <SCORE.INTRA>
0.506296

>  <SCORE.INTRA.DIHEDRAL>
1.11144

>  <SCORE.INTRA.DIHEDRAL.0>
2.54896

>  <SCORE.INTRA.POLAR>
0.0497922

>  <SCORE.INTRA.POLAR.0>
-0.0497922

>  <SCORE.INTRA.REPUL>
0

>  <SCORE.INTRA.REPUL.0>
0

>  <SCORE.INTRA.SOLV>
-0.552415

>  <SCORE.INTRA.SOLV.lig_0>
-15.5506

>  <SCORE.INTRA.VDW>
0.0574913

>  <SCORE.INTRA.VDW.0>
-0.426824

>  <SCORE.INTRA.norm>
0.0460269

>  <SCORE.RESTR>
0.184698

>  <SCORE.RESTR.CAVITY>
0.184698

>  <SCORE.RESTR.norm>
0.0167907

>  <SCORE.SYSTEM>
-19.5898

>  <SCORE.SYSTEM.CONST>
0

>  <SCORE.SYSTEM.DIHEDRAL>
5.94384

>  <SCORE.SYSTEM.POLAR>
-3.2886

>  <SCORE.SYSTEM.SOLV>
0.190327

>  <SCORE.SYSTEM.VDW>
-4.14256

>  <SCORE.SYSTEM.norm>
-1.78089

>  <SCORE.heavy>
11

>  <SCORE.norm>
-3.7288

$$$$
P59419231
 OpenBabel12072022113D
libRbt.so/2013.1/901 2013/11/27
 14 14  0  0  0  0  0  0  0  0999 V2000
  -27.2569   11.8822  -14.9000 C   0  0  0  0  0  0  0  0  0  0  0  0
  -26.5134   12.7499  -15.9117 C   0  0  1  0  0  0  0  0  0  0  0  0
  -27.3998   13.5013  -16.9350 C   0  0  0  0  0  0  0  0  0  0  0  0
  -26.6157   14.6743  -17.2593 O   0  0  0  0  0  0  0  0  0  0  0  0
  -25.7298   14.8882  -16.2352 C   0  0  0  0  0  0  0  0  0  0  0  0
  -24.9764   15.8492  -16.1735 O   0  0  0  0  0  0  0  0  0  0  0  0
  -25.8034   13.8455  -15.3117 N   0  0  0  0  0  0  0  0  0  0  0  0
  -24.7427   13.6336  -14.3850 N   0  0  0  0  0  0  0  0  0  0  0  0
  -27.6406   12.7287  -18.2319 C   0  0  0  0  0  0  0  0  0  0  0  0
  -28.7358   14.0026  -16.3696 C   0  0  0  0  0  0  0  0  0  0  0  0
  -25.5213   11.9414  -16.5584 O   0  0  0  0  0  0  0  0  0  0  0  0
  -23.8709   13.8334  -14.8913 H   0  0  0  0  0  0  0  0  0  0  0  0
  -24.7112   12.6214  -14.2209 H   0  0  0  0  0  0  0  0  0  0  0  0
  -24.9042   11.6287  -15.8768 H   0  0  0  0  0  0  0  0  0  0  0  0
  2  1  1  1  0  0  0
  2  3  1  0  0  0  0
  2  7  1  0  0  0  0
  2 11  1  0  0  0  0
  3  4  1  0  0  0  0
  3  9  1  0  0  0  0
  3 10  1  0  0  0  0
  4  5  1  0  0  0  0
  5  6  2  0  0  0  0
  5  7  1  0  0  0  0
  7  8  1  0  0  0  0
  8 12  1  0  0  0  0
  8 13  1  0  0  0  0
 11 14  1  0  0  0  0
M  END
>  <CHROM.0>
-62.51996450,61.15754424,-66.96947433,-44.10831396,-176.40377976,-63.63022766
-68.30882360,-61.84981145,-169.29078117

>  <CHROM.1>
-61.23769583,105.14730068,-26.40788048,13.59383093,-16.20061832,-2.91428294
-0.65370882,-0.44122482

>  <Name>
P59419231

>  <RI>
0

>  <Rbt.Current_Directory>
/home/fstefaniak/projects/zuza/docking/adenine/4TZX

>  <Rbt.Executable>
rbdock ($Id: //depot/dev/client3/rdock/2013.1/src/exe/rbdock.cxx#4 $)

>  <Rbt.Library>
libRbt.so (2013.1, Build901 2013/11/27)

>  <Rbt.Parameter_File>
/home/fstefaniak/progs/rDock//data/scripts/dock_solv.prm

>  <Rbt.Receptor>
4tzx.prm

>  <SCORE>
-44.4559

>  <SCORE.INTER>
-23.5563

>  <SCORE.INTER.CONST>
1

>  <SCORE.INTER.POLAR>
-3.50904

>  <SCORE.INTER.ROT>
1

>  <SCORE.INTER.SOLV>
8.23374

>  <SCORE.INTER.VDW>
-11.0187

>  <SCORE.INTER.norm>
-2.14148

>  <SCORE.INTRA>
-0.426684

>  <SCORE.INTRA.DIHEDRAL>
-0.574021

>  <SCORE.INTRA.DIHEDRAL.0>
1.82137

>  <SCORE.INTRA.POLAR>
0.00100246

>  <SCORE.INTRA.POLAR.0>
-0.00100246

>  <SCORE.INTRA.REPUL>
0

>  <SCORE.INTRA.REPUL.0>
0

>  <SCORE.INTRA.SOLV>
0.209203

>  <SCORE.INTRA.SOLV.lig_0>
-13.2113

>  <SCORE.INTRA.VDW>
-0.247684

>  <SCORE.INTRA.VDW.0>
0.813101

>  <SCORE.INTRA.norm>
-0.0387895

>  <SCORE.RESTR>
0

>  <SCORE.RESTR.CAVITY>
0

>  <SCORE.RESTR.norm>
0

>  <SCORE.SYSTEM>
-20.4729

>  <SCORE.SYSTEM.CONST>
0

>  <SCORE.SYSTEM.DIHEDRAL>
4.47243

>  <SCORE.SYSTEM.POLAR>
-3.00245

>  <SCORE.SYSTEM.SOLV>
0.0376532

>  <SCORE.SYSTEM.VDW>
-5.14376

>  <SCORE.SYSTEM.norm>
-1.86117

>  <SCORE.heavy>
11

>  <SCORE.norm>
-4.04144

$$$$
P59419231
 OpenBabel12072022113D
libRbt.so/2013.1/901 2013/11/27
 14 14  0  0  0  0  0  0  0  0999 V2000
  -25.0122   12.8294  -15.8996 C   0  0  0  0  0  0  0  0  0  0  0  0
  -26.1194   13.7048  -16.4800 C   0  0  1  0  0  0  0  0  0  0  0  0
  -27.4800   13.0035  -16.7137 C   0  0  0  0  0  0  0  0  0  0  0  0
  -28.4384   14.0808  -16.5838 O   0  0  0  0  0  0  0  0  0  0  0  0
  -27.8514   15.0851  -15.8584 C   0  0  0  0  0  0  0  0  0  0  0  0
  -28.4301   16.1046  -15.5110 O   0  0  0  0  0  0  0  0  0  0  0  0
  -26.5135   14.7785  -15.6103 N   0  0  0  0  0  0  0  0  0  0  0  0
  -25.6033   15.8044  -15.2260 N   0  0  0  0  0  0  0  0  0  0  0  0
  -27.6374   12.4060  -18.1119 C   0  0  0  0  0  0  0  0  0  0  0  0
  -27.8439   11.9552  -15.6533 C   0  0  0  0  0  0  0  0  0  0  0  0
  -25.6266   14.3240  -17.6757 O   0  0  0  0  0  0  0  0  0  0  0  0
  -25.4796   16.4062  -16.0500 H   0  0  0  0  0  0  0  0  0  0  0  0
  -24.6933   15.3444  -15.1125 H   0  0  0  0  0  0  0  0  0  0  0  0
  -26.3100   14.9355  -17.9955 H   0  0  0  0  0  0  0  0  0  0  0  0
  2  1  1  1  0  0  0
  2  3  1  0  0  0  0
  2  7  1  0  0  0  0
  2 11  1  0  0  0  0
  3  4  1  0  0  0  0
  3  9  1  0  0  0  0
  3 10  1  0  0  0  0
  4  5  1  0  0  0  0
  5  6  2  0  0  0  0
  5  7  1  0  0  0  0
  7  8  1  0  0  0  0
  8 12  1  0  0  0  0
  8 13  1  0  0  0  0
 11 14  1  0  0  0  0
M  END
>  <CHROM.0>
-62.15325730,-72.91239316,-63.49093823,-43.57280199,-56.40374598,-173.16914336
-66.24468165,-59.12632916,-168.90826652

>  <CHROM.1>
-175.29286498,73.67039936,-26.94249435,14.03909903,-16.31754872,-1.61175735
-0.01384953,0.41187933

>  <Name>
P59419231

>  <RI>
0

>  <Rbt.Current_Directory>
/home/fstefaniak/projects/zuza/docking/adenine/4TZX

>  <Rbt.Executable>
rbdock ($Id: //depot/dev/client3/rdock/2013.1/src/exe/rbdock.cxx#4 $)

>  <Rbt.Library>
libRbt.so (2013.1, Build901 2013/11/27)

>  <Rbt.Parameter_File>
/home/fstefaniak/progs/rDock//data/scripts/dock_solv.prm

>  <Rbt.Receptor>
4tzx.prm

>  <SCORE>
-37.2731

>  <SCORE.INTER>
-14.8286

>  <SCORE.INTER.CONST>
1

>  <SCORE.INTER.POLAR>
-2.263

>  <SCORE.INTER.ROT>
1

>  <SCORE.INTER.SOLV>
9.81899

>  <SCORE.INTER.VDW>
-9.88203

>  <SCORE.INTER.norm>
-1.34805

>  <SCORE.INTRA>
-1.71671

>  <SCORE.INTRA.DIHEDRAL>
-1.48016

>  <SCORE.INTRA.DIHEDRAL.0>
1.82137

>  <SCORE.INTRA.POLAR>
0.00100246

>  <SCORE.INTRA.POLAR.0>
-0.00100246

>  <SCORE.INTRA.REPUL>
0

>  <SCORE.INTRA.REPUL.0>
0

>  <SCORE.INTRA.SOLV>
0.102564

>  <SCORE.INTRA.SOLV.lig_0>
-13.2113

>  <SCORE.INTRA.VDW>
-1.03132

>  <SCORE.INTRA.VDW.0>
0.813101

>  <SCORE.INTRA.norm>
-0.156064

>  <SCORE.RESTR>
0

>  <SCORE.RESTR.CAVITY>
0

>  <SCORE.RESTR.norm>
0

>  <SCORE.SYSTEM>
-20.7278

>  <SCORE.SYSTEM.CONST>
0

>  <SCORE.SYSTEM.DIHEDRAL>
5.1838

>  <SCORE.SYSTEM.POLAR>
-3.04106

>  <SCORE.SYSTEM.SOLV>
0.0631798

>  <SCORE.SYSTEM.VDW>
-5.43068

>  <SCORE.SYSTEM.norm>
-1.88435

>  <SCORE.heavy>
11

>  <SCORE.norm>
-3.38846

$$$$
P59419231
 OpenBabel12072022113D
libRbt.so/2013.1/901 2013/11/27
 14 14  0  0  0  0  0  0  0  0999 V2000
  -25.1727   13.4746  -15.6923 C   0  0  0  0  0  0  0  0  0  0  0  0
  -26.4027   13.9616  -16.4532 C   0  0  1  0  0  0  0  0  0  0  0  0
  -27.5403   12.9258  -16.6286 C   0  0  0  0  0  0  0  0  0  0  0  0
  -28.7297   13.7467  -16.7154 O   0  0  0  0  0  0  0  0  0  0  0  0
  -28.4516   14.9582  -16.1375 C   0  0  0  0  0  0  0  0  0  0  0  0
  -29.2769   15.8473  -15.9844 O   0  0  0  0  0  0  0  0  0  0  0  0
  -27.1034   15.0238  -15.7861 N   0  0  0  0  0  0  0  0  0  0  0  0
  -26.4897   16.2842  -15.5341 N   0  0  0  0  0  0  0  0  0  0  0  0
  -27.4424   12.1095  -17.9173 C   0  0  0  0  0  0  0  0  0  0  0  0
  -27.7347   11.9879  -15.4293 C   0  0  0  0  0  0  0  0  0  0  0  0
  -25.9729   14.4991  -17.7112 O   0  0  0  0  0  0  0  0  0  0  0  0
  -26.6916   16.8738  -16.3514 H   0  0  0  0  0  0  0  0  0  0  0  0
  -25.4784   16.1198  -15.5871 H   0  0  0  0  0  0  0  0  0  0  0  0
  -26.7553   14.8540  -18.1642 H   0  0  0  0  0  0  0  0  0  0  0  0
  2  1  1  1  0  0  0
  2  3  1  0  0  0  0
  2  7  1  0  0  0  0
  2 11  1  0  0  0  0
  3  4  1  0  0  0  0
  3  9  1  0  0  0  0
  3 10  1  0  0  0  0
  4  5  1  0  0  0  0
  5  6  2  0  0  0  0
  5  7  1  0  0  0  0
  7  8  1  0  0  0  0
  8 12  1  0  0  0  0
  8 13  1  0  0  0  0
 11 14  1  0  0  0  0
M  END
>  <CHROM.0>
-58.66401265,-175.48826124,-64.26156341,-42.57973931,-56.95162580,-60.22117083
-67.57163336,-53.84700610,-169.67037671

>  <CHROM.1>
-176.67250296,90.14884912,-27.29251721,14.10794483,-16.38355927,-1.36054106
0.00837801,0.25314207

>  <Name>
P59419231

>  <RI>
0

>  <Rbt.Current_Directory>
/home/fstefaniak/projects/zuza/docking/adenine/4TZX

>  <Rbt.Executable>
rbdock ($Id: //depot/dev/client3/rdock/2013.1/src/exe/rbdock.cxx#4 $)

>  <Rbt.Library>
libRbt.so (2013.1, Build901 2013/11/27)

>  <Rbt.Parameter_File>
/home/fstefaniak/progs/rDock//data/scripts/dock_solv.prm

>  <Rbt.Receptor>
4tzx.prm

>  <SCORE>
-36.7128

>  <SCORE.INTER>
-14.4232

>  <SCORE.INTER.CONST>
1

>  <SCORE.INTER.POLAR>
-2.32456

>  <SCORE.INTER.ROT>
1

>  <SCORE.INTER.SOLV>
9.76066

>  <SCORE.INTER.VDW>
-9.3872

>  <SCORE.INTER.norm>
-1.3112

>  <SCORE.INTRA>
-1.42415

>  <SCORE.INTRA.DIHEDRAL>
-1.11603

>  <SCORE.INTRA.DIHEDRAL.0>
1.82137

>  <SCORE.INTRA.POLAR>
0.00100246

>  <SCORE.INTRA.POLAR.0>
-0.00100246

>  <SCORE.INTRA.REPUL>
0

>  <SCORE.INTRA.REPUL.0>
0

>  <SCORE.INTRA.SOLV>
0.125573

>  <SCORE.INTRA.SOLV.lig_0>
-13.2113

>  <SCORE.INTRA.VDW>
-0.932326

>  <SCORE.INTRA.VDW.0>
0.813101

>  <SCORE.INTRA.norm>
-0.129468

>  <SCORE.RESTR>
0

>  <SCORE.RESTR.CAVITY>
0

>  <SCORE.RESTR.norm>
0

>  <SCORE.SYSTEM>
-20.8654

>  <SCORE.SYSTEM.CONST>
0

>  <SCORE.SYSTEM.DIHEDRAL>
4.61302

>  <SCORE.SYSTEM.POLAR>
-3.06721

>  <SCORE.SYSTEM.SOLV>
0.172282

>  <SCORE.SYSTEM.VDW>
-5.28132

>  <SCORE.SYSTEM.norm>
-1.89685

>  <SCORE.heavy>
11

>  <SCORE.norm>
-3.33752

$$$$
P59419233
 OpenBabel12072022113D
libRbt.so/2013.1/901 2013/11/27
 14 14  0  0  0  0  0  0  0  0999 V2000
  -25.2654   11.8418  -16.0963 C   0  0  0  0  0  0  0  0  0  0  0  0
  -26.2477   12.9717  -15.7775 C   0  0  2  0  0  0  0  0  0  0  0  0
  -27.1909   13.3684  -16.9359 C   0  0  0  0  0  0  0  0  0  0  0  0
  -26.4403   14.3982  -17.6341 O   0  0  0  0  0  0  0  0  0  0  0  0
  -25.5684   14.9628  -16.7396 C   0  0  0  0  0  0  0  0  0  0  0  0
  -24.9100   15.9680  -16.9552 O   0  0  0  0  0  0  0  0  0  0  0  0
  -25.5522   14.2082  -15.5772 N   0  0  0  0  0  0  0  0  0  0  0  0
  -24.7280   14.4803  -14.4644 N   0  0  0  0  0  0  0  0  0  0  0  0
  -27.5043   12.2547  -17.9343 C   0  0  0  0  0  0  0  0  0  0  0  0
  -28.5067   13.9993  -16.4523 C   0  0  0  0  0  0  0  0  0  0  0  0
  -26.9081   12.6655  -14.5656 O   0  0  0  0  0  0  0  0  0  0  0  0
  -24.7246   15.5016  -14.3458 H   0  0  0  0  0  0  0  0  0  0  0  0
  -23.7623   14.2804  -14.7498 H   0  0  0  0  0  0  0  0  0  0  0  0
  -27.4056   11.8589  -14.8113 H   0  0  0  0  0  0  0  0  0  0  0  0
  2  3  1  0  0  0  0
  2  7  1  0  0  0  0
  2 11  1  0  0  0  0
  2  1  1  6  0  0  0
  3  4  1  0  0  0  0
  3  9  1  0  0  0  0
  3 10  1  0  0  0  0
  4  5  1  0  0  0  0
  5  6  2  0  0  0  0
  5  7  1  0  0  0  0
  7  8  1  0  0  0  0
  8 12  1  0  0  0  0
  8 13  1  0  0  0  0
 11 14  1  0  0  0  0
M  END
>  <CHROM.0>
-59.38769436,57.78288079,-70.89659144,-42.90684925,-58.53568557,-176.56116135
-167.91459965,-175.58499744,-169.17642689

>  <CHROM.1>
-64.61126426,-154.31077487,-26.24520761,13.74226862,-16.26037091,-2.82963381
-0.73870915,-0.75085540

>  <Name>
P59419233

>  <RI>
0

>  <Rbt.Current_Directory>
/home/fstefaniak/projects/zuza/docking/adenine/4TZX

>  <Rbt.Executable>
rbdock ($Id: //depot/dev/client3/rdock/2013.1/src/exe/rbdock.cxx#4 $)

>  <Rbt.Library>
libRbt.so (2013.1, Build901 2013/11/27)

>  <Rbt.Parameter_File>
/home/fstefaniak/progs/rDock//data/scripts/dock_solv.prm

>  <Rbt.Receptor>
4tzx.prm

>  <SCORE>
-46.9476

>  <SCORE.INTER>
-26.3757

>  <SCORE.INTER.CONST>
1

>  <SCORE.INTER.POLAR>
-3.96548

>  <SCORE.INTER.ROT>
1

>  <SCORE.INTER.SOLV>
10.2196

>  <SCORE.INTER.VDW>
-12.0388

>  <SCORE.INTER.norm>
-2.39779

>  <SCORE.INTRA>
-1.071

>  <SCORE.INTRA.DIHEDRAL>
-5.0284

>  <SCORE.INTRA.DIHEDRAL.0>
5.68199

>  <SCORE.INTRA.POLAR>
0.473783

>  <SCORE.INTRA.POLAR.0>
-0.473783

>  <SCORE.INTRA.REPUL>
0

>  <SCORE.INTRA.REPUL.0>
0

>  <SCORE.INTRA.SOLV>
-0.238168

>  <SCORE.INTRA.SOLV.lig_0>
-11.6346

>  <SCORE.INTRA.VDW>
-0.0485817

>  <SCORE.INTRA.VDW.0>
0.279213

>  <SCORE.INTRA.norm>
-0.0973639

>  <SCORE.RESTR>
0

>  <SCORE.RESTR.CAVITY>
0

>  <SCORE.RESTR.norm>
0

>  <SCORE.SYSTEM>
-19.5009

>  <SCORE.SYSTEM.CONST>
0

>  <SCORE.SYSTEM.DIHEDRAL>
5.30077

>  <SCORE.SYSTEM.POLAR>
-3.03748

>  <SCORE.SYSTEM.SOLV>
-0.0158536

>  <SCORE.SYSTEM.VDW>
-4.63731

>  <SCORE.SYSTEM.norm>
-1.77281

>  <SCORE.heavy>
11

>  <SCORE.norm>
-4.26796

$$$$
P59419233
 OpenBabel12072022113D
libRbt.so/2013.1/901 2013/11/27
 14 14  0  0  0  0  0  0  0  0999 V2000
  -28.3799   14.2724  -16.6280 C   0  0  0  0  0  0  0  0  0  0  0  0
  -26.9500   13.7940  -16.8924 C   0  0  2  0  0  0  0  0  0  0  0  0
  -26.3905   12.7923  -15.8569 C   0  0  0  0  0  0  0  0  0  0  0  0
  -25.7756   13.6552  -14.8626 O   0  0  0  0  0  0  0  0  0  0  0  0
  -25.4472   14.8364  -15.4759 C   0  0  0  0  0  0  0  0  0  0  0  0
  -24.7660   15.7135  -14.9689 O   0  0  0  0  0  0  0  0  0  0  0  0
  -26.0174   14.8708  -16.7386 N   0  0  0  0  0  0  0  0  0  0  0  0
  -25.9189   15.9639  -17.6257 N   0  0  0  0  0  0  0  0  0  0  0  0
  -27.4358   11.9297  -15.1507 C   0  0  0  0  0  0  0  0  0  0  0  0
  -25.2896   11.8851  -16.4301 C   0  0  0  0  0  0  0  0  0  0  0  0
  -26.8625   13.3570  -18.2340 O   0  0  0  0  0  0  0  0  0  0  0  0
  -24.9190   16.1915  -17.6993 H   0  0  0  0  0  0  0  0  0  0  0  0
  -26.3038   16.7817  -17.1387 H   0  0  0  0  0  0  0  0  0  0  0  0
  -26.8914   14.2067  -18.7196 H   0  0  0  0  0  0  0  0  0  0  0  0
  2  3  1  0  0  0  0
  2  7  1  0  0  0  0
  2 11  1  0  0  0  0
  2  1  1  1  0  0  0
  3  4  1  0  0  0  0
  3  9  1  0  0  0  0
  3 10  1  0  0  0  0
  4  5  1  0  0  0  0
  5  6  2  0  0  0  0
  5  7  1  0  0  0  0
  7  8  1  0  0  0  0
  8 12  1  0  0  0  0
  8 13  1  0  0  0  0
 11 14  1  0  0  0  0
M  END
>  <CHROM.0>
-58.56070402,-175.31315349,-63.61976762,-41.99133643,-176.46676974,-59.73923411
-64.67493451,-59.34270655,-168.94086125

>  <CHROM.1>
72.64622937,-142.77745674,-26.28617430,13.94240237,-16.28473249,2.22246487
0.87587175,2.56447299

>  <Name>
P59419233

>  <RI>
0

>  <Rbt.Current_Directory>
/home/fstefaniak/projects/zuza/docking/adenine/4TZX

>  <Rbt.Executable>
rbdock ($Id: //depot/dev/client3/rdock/2013.1/src/exe/rbdock.cxx#4 $)

>  <Rbt.Library>
libRbt.so (2013.1, Build901 2013/11/27)

>  <Rbt.Parameter_File>
/home/fstefaniak/progs/rDock//data/scripts/dock_solv.prm

>  <Rbt.Receptor>
4tzx.prm

>  <SCORE>
-35.9731

>  <SCORE.INTER>
-13.7716

>  <SCORE.INTER.CONST>
1

>  <SCORE.INTER.POLAR>
-3.29057

>  <SCORE.INTER.ROT>
1

>  <SCORE.INTER.SOLV>
10.7599

>  <SCORE.INTER.VDW>
-6.0658

>  <SCORE.INTER.norm>
-1.25196

>  <SCORE.INTRA>
-1.13665

>  <SCORE.INTRA.DIHEDRAL>
-3.74984

>  <SCORE.INTRA.DIHEDRAL.0>
5.68199

>  <SCORE.INTRA.POLAR>
0.253681

>  <SCORE.INTRA.POLAR.0>
-0.473783

>  <SCORE.INTRA.REPUL>
0

>  <SCORE.INTRA.REPUL.0>
0

>  <SCORE.INTRA.SOLV>
-0.0092653

>  <SCORE.INTRA.SOLV.lig_0>
-11.6346

>  <SCORE.INTRA.VDW>
-0.119606

>  <SCORE.INTRA.VDW.0>
0.279213

>  <SCORE.INTRA.norm>
-0.103331

>  <SCORE.RESTR>
0.00696804

>  <SCORE.RESTR.CAVITY>
0.00696804

>  <SCORE.RESTR.norm>
0.000633458

>  <SCORE.SYSTEM>
-21.0719

>  <SCORE.SYSTEM.CONST>
0

>  <SCORE.SYSTEM.DIHEDRAL>
4.43995

>  <SCORE.SYSTEM.POLAR>
-3.07483

>  <SCORE.SYSTEM.SOLV>
-0.0114263

>  <SCORE.SYSTEM.VDW>
-5.27467

>  <SCORE.SYSTEM.norm>
-1.91562

>  <SCORE.heavy>
11

>  <SCORE.norm>
-3.27029

$$$$
P59419233
 OpenBabel12072022113D
libRbt.so/2013.1/901 2013/11/27
 14 14  0  0  0  0  0  0  0  0999 V2000
  -28.2217   14.1913  -16.1968 C   0  0  0  0  0  0  0  0  0  0  0  0
  -27.0489   13.3594  -16.7218 C   0  0  2  0  0  0  0  0  0  0  0  0
  -26.9164   11.9484  -16.1052 C   0  0  0  0  0  0  0  0  0  0  0  0
  -26.0660   12.1728  -14.9485 O   0  0  0  0  0  0  0  0  0  0  0  0
  -25.3188   13.2970  -15.1874 C   0  0  0  0  0  0  0  0  0  0  0  0
  -24.3860   13.6685  -14.4929 O   0  0  0  0  0  0  0  0  0  0  0  0
  -25.7990   13.9338  -16.3208 N   0  0  0  0  0  0  0  0  0  0  0  0
  -25.2891   15.1489  -16.8261 N   0  0  0  0  0  0  0  0  0  0  0  0
  -28.2223   11.3235  -15.6159 C   0  0  0  0  0  0  0  0  0  0  0  0
  -26.1938   10.9533  -17.0276 C   0  0  0  0  0  0  0  0  0  0  0  0
  -27.0804   13.3785  -18.1350 O   0  0  0  0  0  0  0  0  0  0  0  0
  -25.3527   15.0891  -17.8505 H   0  0  0  0  0  0  0  0  0  0  0  0
  -24.2760   15.1418  -16.6596 H   0  0  0  0  0  0  0  0  0  0  0  0
  -26.2317   12.9434  -18.3564 H   0  0  0  0  0  0  0  0  0  0  0  0
  2  3  1  0  0  0  0
  2  7  1  0  0  0  0
  2 11  1  0  0  0  0
  2  1  1  1  0  0  0
  3  4  1  0  0  0  0
  3  9  1  0  0  0  0
  3 10  1  0  0  0  0
  4  5  1  0  0  0  0
  5  6  2  0  0  0  0
  5  7  1  0  0  0  0
  7  8  1  0  0  0  0
  8 12  1  0  0  0  0
  8 13  1  0  0  0  0
 11 14  1  0  0  0  0
M  END
>  <CHROM.0>
-60.71525545,-175.58550853,-63.05735229,-179.11474989,-57.04954845,-63.14889852
-67.65513466,-58.46890155,-168.56906422

>  <CHROM.1>
171.85343737,-49.53700630,-26.39169757,13.05050773,-16.16855129,2.65950959
0.65841918,2.58208795

>  <Name>
P59419233

>  <RI>
0

>  <Rbt.Current_Directory>
/home/fstefaniak/projects/zuza/docking/adenine/4TZX

>  <Rbt.Executable>
rbdock ($Id: //depot/dev/client3/rdock/2013.1/src/exe/rbdock.cxx#4 $)

>  <Rbt.Library>
libRbt.so (2013.1, Build901 2013/11/27)

>  <Rbt.Parameter_File>
/home/fstefaniak/progs/rDock//data/scripts/dock_solv.prm

>  <Rbt.Receptor>
4tzx.prm

>  <SCORE>
-34.0112

>  <SCORE.INTER>
-16.3123

>  <SCORE.INTER.CONST>
1

>  <SCORE.INTER.POLAR>
-2.27773

>  <SCORE.INTER.ROT>
1

>  <SCORE.INTER.SOLV>
8.65509

>  <SCORE.INTER.VDW>
-10.4342

>  <SCORE.INTER.norm>
-1.48294

>  <SCORE.INTRA>
-0.0557328

>  <SCORE.INTRA.DIHEDRAL>
-4.93779

>  <SCORE.INTRA.DIHEDRAL.0>
5.68199

>  <SCORE.INTRA.POLAR>
0.473783

>  <SCORE.INTRA.POLAR.0>
-0.473783

>  <SCORE.INTRA.REPUL>
0

>  <SCORE.INTRA.REPUL.0>
0

>  <SCORE.INTRA.SOLV>
-0.0423301

>  <SCORE.INTRA.SOLV.lig_0>
-11.6346

>  <SCORE.INTRA.VDW>
0.823468

>  <SCORE.INTRA.VDW.0>
0.279213

>  <SCORE.INTRA.norm>
-0.00506662

>  <SCORE.RESTR>
1.00358

>  <SCORE.RESTR.CAVITY>
1.00358

>  <SCORE.RESTR.norm>
0.0912342

>  <SCORE.SYSTEM>
-18.6467

>  <SCORE.SYSTEM.CONST>
0

>  <SCORE.SYSTEM.DIHEDRAL>
3.19821

>  <SCORE.SYSTEM.POLAR>
-2.46827

>  <SCORE.SYSTEM.SOLV>
-0.00814458

>  <SCORE.SYSTEM.VDW>
-5.26696

>  <SCORE.SYSTEM.norm>
-1.69516

>  <SCORE.heavy>
11

>  <SCORE.norm>
-3.09193

$$$$
P60589159
 OpenBabel12072022113D
libRbt.so/2013.1/901 2013/11/27
 12 11  0  0  0  0  0  0  0  0999 V2000
  -30.5705   18.4079  -19.0726 C   0  0  0  0  0  0  0  0  0  0  0  0
  -31.0515   18.7075  -17.3839 S   0  0  0  0  0  0  0  0  0  0  0  0
  -30.8767   20.1106  -17.0517 O   0  0  0  0  0  0  0  0  0  0  0  0
  -32.3760   18.1279  -17.2000 O   0  0  0  0  0  0  0  0  0  0  0  0
  -29.9966   17.7653  -16.3012 C   0  0  1  0  0  0  0  0  0  0  0  0
  -30.6294   17.6479  -14.9202 C   0  0  0  0  0  0  0  0  0  0  0  0
  -31.4488   18.5248  -14.5764 O   0  0  0  0  0  0  0  0  0  0  0  0
  -30.0793   16.6986  -14.2701 O   0  5  0  0  0  0  0  0  0  0  0  0
  -29.6569   16.3442  -16.8243 N   0  3  0  0  0  0  0  0  0  0  0  0
  -30.4559   15.7233  -16.6543 H   0  0  0  0  0  0  0  0  0  0  0  0
  -29.3233   16.3233  -17.7848 H   0  0  0  0  0  0  0  0  0  0  0  0
  -28.9153   16.0511  -16.1433 H   0  0  0  0  0  0  0  0  0  0  0  0
  1  2  1  0  0  0  0
  2  3  2  0  0  0  0
  2  4  2  0  0  0  0
  2  5  1  0  0  0  0
  5  6  1  1  0  0  0
  5  9  1  0  0  0  0
  6  7  2  0  0  0  0
  6  8  1  0  0  0  0
  9 10  1  0  0  0  0
  9 11  1  0  0  0  0
  9 12  1  0  0  0  0
M  CHG  2   8  -1   9   1
M  END
>  <CHROM.0>
-60.64596225,-62.22176519,-66.72114100,-43.16604899,-55.99146545,-174.56891002
-67.33461769,-173.30008270,-168.15086184

>  <CHROM.1>
-162.44427057,-24.47161880,-78.31278329,-30.78464579,18.10301248,-16.53042032
-1.91679985,-0.99540075,1.76227506

>  <Name>
P60589159

>  <RI>
0

>  <Rbt.Current_Directory>
/home/fstefaniak/projects/zuza/docking/adenine/4TZX

>  <Rbt.Executable>
rbdock ($Id: //depot/dev/client3/rdock/2013.1/src/exe/rbdock.cxx#4 $)

>  <Rbt.Library>
libRbt.so (2013.1, Build901 2013/11/27)

>  <Rbt.Parameter_File>
/home/fstefaniak/progs/rDock//data/scripts/dock_solv.prm

>  <Rbt.Receptor>
4tzx.prm

>  <SCORE>
-49.9643

>  <SCORE.INTER>
-26.5264

>  <SCORE.INTER.CONST>
1

>  <SCORE.INTER.POLAR>
-4.14952

>  <SCORE.INTER.ROT>
2

>  <SCORE.INTER.SOLV>
23.8351

>  <SCORE.INTER.VDW>
-16.7309

>  <SCORE.INTER.norm>
-2.94738

>  <SCORE.INTRA>
-2.50732

>  <SCORE.INTRA.DIHEDRAL>
-2.01277

>  <SCORE.INTRA.DIHEDRAL.0>
4.09112

>  <SCORE.INTRA.POLAR>
0

>  <SCORE.INTRA.POLAR.0>
0

>  <SCORE.INTRA.REPUL>
0

>  <SCORE.INTRA.REPUL.0>
0

>  <SCORE.INTRA.SOLV>
0.0319224

>  <SCORE.INTRA.SOLV.lig_0>
-50.6397

>  <SCORE.INTRA.VDW>
-1.5169

>  <SCORE.INTRA.VDW.0>
0.539372

>  <SCORE.INTRA.norm>
-0.278591

>  <SCORE.RESTR>
0

>  <SCORE.RESTR.CAVITY>
0

>  <SCORE.RESTR.norm>
0

>  <SCORE.SYSTEM>
-20.9306

>  <SCORE.SYSTEM.CONST>
0

>  <SCORE.SYSTEM.DIHEDRAL>
4.89388

>  <SCORE.SYSTEM.POLAR>
-3.05108

>  <SCORE.SYSTEM.SOLV>
-0.066311

>  <SCORE.SYSTEM.VDW>
-5.39266

>  <SCORE.SYSTEM.norm>
-2.32562

>  <SCORE.heavy>
9

>  <SCORE.norm>
-5.55159

$$$$
P60589159
 OpenBabel12072022113D
libRbt.so/2013.1/901 2013/11/27
 12 11  0  0  0  0  0  0  0  0999 V2000
  -30.5269   18.3467  -19.1959 C   0  0  0  0  0  0  0  0  0  0  0  0
  -31.0595   18.7741  -17.5508 S   0  0  0  0  0  0  0  0  0  0  0  0
  -30.8561   20.1915  -17.3077 O   0  0  0  0  0  0  0  0  0  0  0  0
  -32.4062   18.2438  -17.3786 O   0  0  0  0  0  0  0  0  0  0  0  0
  -30.0722   17.8806  -16.3676 C   0  0  1  0  0  0  0  0  0  0  0  0
  -30.8931   17.5741  -15.1212 C   0  0  0  0  0  0  0  0  0  0  0  0
  -31.6675   18.4578  -14.6995 O   0  0  0  0  0  0  0  0  0  0  0  0
  -30.5246   16.4597  -14.6222 O   0  5  0  0  0  0  0  0  0  0  0  0
  -29.4686   16.5591  -16.9133 N   0  3  0  0  0  0  0  0  0  0  0  0
  -30.2167   15.8643  -17.0146 H   0  0  0  0  0  0  0  0  0  0  0  0
  -28.9050   16.6745  -17.7519 H   0  0  0  0  0  0  0  0  0  0  0  0
  -28.8950   16.2463  -16.0931 H   0  0  0  0  0  0  0  0  0  0  0  0
  1  2  1  0  0  0  0
  2  3  2  0  0  0  0
  2  4  2  0  0  0  0
  2  5  1  0  0  0  0
  5  6  1  1  0  0  0
  5  9  1  0  0  0  0
  6  7  2  0  0  0  0
  6  8  1  0  0  0  0
  9 10  1  0  0  0  0
  9 11  1  0  0  0  0
  9 12  1  0  0  0  0
M  CHG  2   8  -1   9   1
M  END
>  <CHROM.0>
-62.72729668,-69.23115969,-69.74131092,-43.30498174,-178.10257241,-65.16430146
-166.43479386,-178.46748735,-168.42376779

>  <CHROM.1>
-148.40784114,-39.87428031,-72.14881436,-30.85785330,18.12775377,-16.70386834
-1.72346038,-0.90718332,1.98642841

>  <Name>
P60589159

>  <RI>
0

>  <Rbt.Current_Directory>
/home/fstefaniak/projects/zuza/docking/adenine/4TZX

>  <Rbt.Executable>
rbdock ($Id: //depot/dev/client3/rdock/2013.1/src/exe/rbdock.cxx#4 $)

>  <Rbt.Library>
libRbt.so (2013.1, Build901 2013/11/27)

>  <Rbt.Parameter_File>
/home/fstefaniak/progs/rDock//data/scripts/dock_solv.prm

>  <Rbt.Receptor>
4tzx.prm

>  <SCORE>
-49.555

>  <SCORE.INTER>
-27.3371

>  <SCORE.INTER.CONST>
1

>  <SCORE.INTER.POLAR>
-4.04299

>  <SCORE.INTER.ROT>
2

>  <SCORE.INTER.SOLV>
23.9136

>  <SCORE.INTER.VDW>
-17.6526

>  <SCORE.INTER.norm>
-3.03745

>  <SCORE.INTRA>
-1.66822

>  <SCORE.INTRA.DIHEDRAL>
-1.13329

>  <SCORE.INTRA.DIHEDRAL.0>
4.09112

>  <SCORE.INTRA.POLAR>
0

>  <SCORE.INTRA.POLAR.0>
0

>  <SCORE.INTRA.REPUL>
0

>  <SCORE.INTRA.REPUL.0>
0

>  <SCORE.INTRA.SOLV>
0.116248

>  <SCORE.INTRA.SOLV.lig_0>
-50.6397

>  <SCORE.INTRA.VDW>
-1.1597

>  <SCORE.INTRA.VDW.0>
0.539372

>  <SCORE.INTRA.norm>
-0.185358

>  <SCORE.RESTR>
0

>  <SCORE.RESTR.CAVITY>
0

>  <SCORE.RESTR.norm>
0

>  <SCORE.SYSTEM>
-20.5497

>  <SCORE.SYSTEM.CONST>
0

>  <SCORE.SYSTEM.DIHEDRAL>
5.78167

>  <SCORE.SYSTEM.POLAR>
-3.02346

>  <SCORE.SYSTEM.SOLV>
-0.174547

>  <SCORE.SYSTEM.VDW>
-5.49066

>  <SCORE.SYSTEM.norm>
-2.2833

>  <SCORE.heavy>
9

>  <SCORE.norm>
-5.50611

$$$$
P60589159
 OpenBabel12072022113D
libRbt.so/2013.1/901 2013/11/27
 12 11  0  0  0  0  0  0  0  0999 V2000
  -30.5230   18.4129  -19.0990 C   0  0  0  0  0  0  0  0  0  0  0  0
  -31.0549   18.7226  -17.4274 S   0  0  0  0  0  0  0  0  0  0  0  0
  -30.8598   20.1213  -17.0878 O   0  0  0  0  0  0  0  0  0  0  0  0
  -32.3978   18.1732  -17.2899 O   0  0  0  0  0  0  0  0  0  0  0  0
  -30.0595   17.7563  -16.3102 C   0  0  1  0  0  0  0  0  0  0  0  0
  -30.7857   17.5711  -14.9836 C   0  0  0  0  0  0  0  0  0  0  0  0
  -31.7461   18.3282  -14.7325 O   0  0  0  0  0  0  0  0  0  0  0  0
  -30.1660   16.7190  -14.2650 O   0  5  0  0  0  0  0  0  0  0  0  0
  -29.6539   16.3642  -16.8633 N   0  3  0  0  0  0  0  0  0  0  0  0
  -30.4332   15.7100  -16.7320 H   0  0  0  0  0  0  0  0  0  0  0  0
  -29.2952   16.3832  -17.8148 H   0  0  0  0  0  0  0  0  0  0  0  0
  -28.9195   16.0790  -16.1713 H   0  0  0  0  0  0  0  0  0  0  0  0
  1  2  1  0  0  0  0
  2  3  2  0  0  0  0
  2  4  2  0  0  0  0
  2  5  1  0  0  0  0
  5  6  1  1  0  0  0
  5  9  1  0  0  0  0
  6  7  2  0  0  0  0
  6  8  1  0  0  0  0
  9 10  1  0  0  0  0
  9 11  1  0  0  0  0
  9 12  1  0  0  0  0
M  CHG  2   8  -1   9   1
M  END
>  <CHROM.0>
-59.91673905,-62.42534380,-71.84919502,-43.40110329,-175.26374005,-60.26981937
-169.95834767,-59.88410144,-168.26759272

>  <CHROM.1>
-158.51570718,-16.63201383,-81.15921693,-30.83835992,18.08964850,-16.58122904
-1.80798886,-0.92150575,1.88551990

>  <Name>
P60589159

>  <RI>
0

>  <Rbt.Current_Directory>
/home/fstefaniak/projects/zuza/docking/adenine/4TZX

>  <Rbt.Executable>
rbdock ($Id: //depot/dev/client3/rdock/2013.1/src/exe/rbdock.cxx#4 $)

>  <Rbt.Library>
libRbt.so (2013.1, Build901 2013/11/27)

>  <Rbt.Parameter_File>
/home/fstefaniak/progs/rDock//data/scripts/dock_solv.prm

>  <Rbt.Receptor>
4tzx.prm

>  <SCORE>
-49.4719

>  <SCORE.INTER>
-26.6993

>  <SCORE.INTER.CONST>
1

>  <SCORE.INTER.POLAR>
-4.14349

>  <SCORE.INTER.ROT>
2

>  <SCORE.INTER.SOLV>
24.0202

>  <SCORE.INTER.VDW>
-16.928

>  <SCORE.INTER.norm>
-2.96659

>  <SCORE.INTRA>
-2.05835

>  <SCORE.INTRA.DIHEDRAL>
-1.53038

>  <SCORE.INTRA.DIHEDRAL.0>
4.09112

>  <SCORE.INTRA.POLAR>
0

>  <SCORE.INTRA.POLAR.0>
0

>  <SCORE.INTRA.REPUL>
0

>  <SCORE.INTRA.REPUL.0>
0

>  <SCORE.INTRA.SOLV>
-0.0383972

>  <SCORE.INTRA.SOLV.lig_0>
-50.6397

>  <SCORE.INTRA.VDW>
-1.27396

>  <SCORE.INTRA.VDW.0>
0.539372

>  <SCORE.INTRA.norm>
-0.228706

>  <SCORE.RESTR>
0

>  <SCORE.RESTR.CAVITY>
0

>  <SCORE.RESTR.norm>
0

>  <SCORE.SYSTEM>
-20.7142

>  <SCORE.SYSTEM.CONST>
0

>  <SCORE.SYSTEM.DIHEDRAL>
5.1697

>  <SCORE.SYSTEM.POLAR>
-3.02752

>  <SCORE.SYSTEM.SOLV>
-0.0273206

>  <SCORE.SYSTEM.VDW>
-5.43189

>  <SCORE.SYSTEM.norm>
-2.30158

>  <SCORE.heavy>
9

>  <SCORE.norm>
-5.49688

$$$$
P60619143
 OpenBabel12072022113D
libRbt.so/2013.1/901 2013/11/27
 13 12  0  0  0  0  0  0  0  0999 V2000
  -27.5249   12.1039  -15.6382 C   0  0  0  0  0  0  0  0  0  0  0  0
  -27.9728   13.4689  -15.7017 N   0  0  0  0  0  0  0  0  0  0  0  0
  -27.7022   14.2721  -16.7663 C   0  0  0  0  0  0  0  0  0  0  0  0
  -26.9937   13.9450  -17.7139 O   0  0  0  0  0  0  0  0  0  0  0  0
  -28.2589   15.5254  -16.7358 N   0  0  0  0  0  0  0  0  0  0  0  0
  -29.0894   16.0836  -15.7784 C   0  0  0  0  0  0  0  0  0  0  0  0
  -29.5535   15.4675  -14.8228 O   0  0  0  0  0  0  0  0  0  0  0  0
  -29.4152   17.5366  -16.0709 C   0  0  0  0  0  0  0  0  0  0  0  0
  -30.8881   17.7291  -16.4348 C   0  0  0  0  0  0  0  0  0  0  0  0
  -31.1279   18.8900  -17.3920 C   0  0  0  0  0  0  0  0  0  0  0  0
  -30.4646   18.5676  -19.0102 Cl  0  0  0  0  0  0  0  0  0  0  0  0
  -28.7040   13.7825  -15.0663 H   0  0  0  0  0  0  0  0  0  0  0  0
  -27.9784   16.0856  -17.5274 H   0  0  0  0  0  0  0  0  0  0  0  0
  1  2  1  0  0  0  0
  2  3  1  0  0  0  0
  2 12  1  0  0  0  0
  3  4  2  0  0  0  0
  3  5  1  0  0  0  0
  5  6  1  0  0  0  0
  5 13  1  0  0  0  0
  6  7  2  0  0  0  0
  6  8  1  0  0  0  0
  8  9  1  0  0  0  0
  9 10  1  0  0  0  0
 10 11  1  0  0  0  0
M  END
>  <CHROM.0>
-60.49423288,-61.35325202,-65.23063601,-43.09056630,-56.58438503,-62.42467607
-67.11372093,-58.86036642,-168.37712898

>  <CHROM.1>
112.01338674,-149.84331078,68.32226802,-29.15700268,16.07501888,-16.83840740
-0.69637568,0.90500789,-1.12305534

>  <Name>
P60619143

>  <RI>
0

>  <Rbt.Current_Directory>
/home/fstefaniak/projects/zuza/docking/adenine/4TZX

>  <Rbt.Executable>
rbdock ($Id: //depot/dev/client3/rdock/2013.1/src/exe/rbdock.cxx#4 $)

>  <Rbt.Library>
libRbt.so (2013.1, Build901 2013/11/27)

>  <Rbt.Parameter_File>
/home/fstefaniak/progs/rDock//data/scripts/dock_solv.prm

>  <Rbt.Receptor>
4tzx.prm

>  <SCORE>
-43.7297

>  <SCORE.INTER>
-24.0011

>  <SCORE.INTER.CONST>
1

>  <SCORE.INTER.POLAR>
-2.30016

>  <SCORE.INTER.ROT>
3

>  <SCORE.INTER.SOLV>
11.8291

>  <SCORE.INTER.VDW>
-17.8766

>  <SCORE.INTER.norm>
-2.18192

>  <SCORE.INTRA>
1.443

>  <SCORE.INTRA.DIHEDRAL>
4.32906

>  <SCORE.INTRA.DIHEDRAL.0>
1.32037

>  <SCORE.INTRA.POLAR>
0

>  <SCORE.INTRA.POLAR.0>
0

>  <SCORE.INTRA.REPUL>
0

>  <SCORE.INTRA.REPUL.0>
0

>  <SCORE.INTRA.SOLV>
0.125471

>  <SCORE.INTRA.SOLV.lig_0>
-18.6908

>  <SCORE.INTRA.VDW>
-0.784261

>  <SCORE.INTRA.VDW.0>
0.151225

>  <SCORE.INTRA.norm>
0.131182

>  <SCORE.RESTR>
0

>  <SCORE.RESTR.CAVITY>
0

>  <SCORE.RESTR.norm>
0

>  <SCORE.SYSTEM>
-21.1716

>  <SCORE.SYSTEM.CONST>
0

>  <SCORE.SYSTEM.DIHEDRAL>
4.44982

>  <SCORE.SYSTEM.POLAR>
-3.05519

>  <SCORE.SYSTEM.SOLV>
0.186476

>  <SCORE.SYSTEM.VDW>
-5.47585

>  <SCORE.SYSTEM.norm>
-1.92469

>  <SCORE.heavy>
11

>  <SCORE.norm>
-3.97543

$$$$
P60619143
 OpenBabel12072022113D
libRbt.so/2013.1/901 2013/11/27
 13 12  0  0  0  0  0  0  0  0999 V2000
  -27.5360   12.0869  -15.6185 C   0  0  0  0  0  0  0  0  0  0  0  0
  -27.9817   13.4521  -15.6909 N   0  0  0  0  0  0  0  0  0  0  0  0
  -27.6965   14.2527  -16.7537 C   0  0  0  0  0  0  0  0  0  0  0  0
  -26.9759   13.9228  -17.6912 O   0  0  0  0  0  0  0  0  0  0  0  0
  -28.2523   15.5065  -16.7333 N   0  0  0  0  0  0  0  0  0  0  0  0
  -29.0948   16.0676  -15.7881 C   0  0  0  0  0  0  0  0  0  0  0  0
  -29.5720   15.4541  -14.8373 O   0  0  0  0  0  0  0  0  0  0  0  0
  -29.4154   17.5203  -16.0880 C   0  0  0  0  0  0  0  0  0  0  0  0
  -30.8554   17.6989  -16.5709 C   0  0  0  0  0  0  0  0  0  0  0  0
  -31.0378   18.8911  -17.5020 C   0  0  0  0  0  0  0  0  0  0  0  0
  -30.3160   18.6041  -19.1016 Cl  0  0  0  0  0  0  0  0  0  0  0  0
  -28.7209   13.7678  -15.0658 H   0  0  0  0  0  0  0  0  0  0  0  0
  -27.9610   16.0647  -17.5223 H   0  0  0  0  0  0  0  0  0  0  0  0
  1  2  1  0  0  0  0
  2  3  1  0  0  0  0
  2 12  1  0  0  0  0
  3  4  2  0  0  0  0
  3  5  1  0  0  0  0
  5  6  1  0  0  0  0
  5 13  1  0  0  0  0
  6  7  2  0  0  0  0
  6  8  1  0  0  0  0
  8  9  1  0  0  0  0
  9 10  1  0  0  0  0
 10 11  1  0  0  0  0
M  END
>  <CHROM.0>
-60.15307726,-61.37950172,-71.69036848,-42.89834793,-175.18827426,-60.58795973
-169.64252813,-59.23834934,-168.93508119

>  <CHROM.1>
107.81242936,-151.30547941,71.79748755,-29.11904151,16.06868634,-16.87354512
-0.75545869,0.89974264,-1.08248372

>  <Name>
P60619143

>  <RI>
0

>  <Rbt.Current_Directory>
/home/fstefaniak/projects/zuza/docking/adenine/4TZX

>  <Rbt.Executable>
rbdock ($Id: //depot/dev/client3/rdock/2013.1/src/exe/rbdock.cxx#4 $)

>  <Rbt.Library>
libRbt.so (2013.1, Build901 2013/11/27)

>  <Rbt.Parameter_File>
/home/fstefaniak/progs/rDock//data/scripts/dock_solv.prm

>  <Rbt.Receptor>
4tzx.prm

>  <SCORE>
-43.1158

>  <SCORE.INTER>
-23.752

>  <SCORE.INTER.CONST>
1

>  <SCORE.INTER.POLAR>
-2.28728

>  <SCORE.INTER.ROT>
3

>  <SCORE.INTER.SOLV>
11.8219

>  <SCORE.INTER.VDW>
-17.751

>  <SCORE.INTER.norm>
-2.15927

>  <SCORE.INTRA>
1.36466

>  <SCORE.INTRA.DIHEDRAL>
4.28806

>  <SCORE.INTRA.DIHEDRAL.0>
1.32037

>  <SCORE.INTRA.POLAR>
0

>  <SCORE.INTRA.POLAR.0>
0

>  <SCORE.INTRA.REPUL>
0

>  <SCORE.INTRA.REPUL.0>
0

>  <SCORE.INTRA.SOLV>
0.126487

>  <SCORE.INTRA.SOLV.lig_0>
-18.6908

>  <SCORE.INTRA.VDW>
-0.842613

>  <SCORE.INTRA.VDW.0>
0.151225

>  <SCORE.INTRA.norm>
0.12406

>  <SCORE.RESTR>
0

>  <SCORE.RESTR.CAVITY>
0

>  <SCORE.RESTR.norm>
0

>  <SCORE.SYSTEM>
-20.7285

>  <SCORE.SYSTEM.CONST>
0

>  <SCORE.SYSTEM.DIHEDRAL>
5.17606

>  <SCORE.SYSTEM.POLAR>
-3.03488

>  <SCORE.SYSTEM.SOLV>
-0.0248147

>  <SCORE.SYSTEM.VDW>
-5.41978

>  <SCORE.SYSTEM.norm>
-1.88441

>  <SCORE.heavy>
11

>  <SCORE.norm>
-3.91962

$$$$
P60619143
 OpenBabel12072022113D
libRbt.so/2013.1/901 2013/11/27
 13 12  0  0  0  0  0  0  0  0999 V2000
  -30.1300   17.5942  -17.4717 C   0  0  0  0  0  0  0  0  0  0  0  0
  -29.5176   16.3189  -17.2140 N   0  0  0  0  0  0  0  0  0  0  0  0
  -29.4778   15.7720  -15.9685 C   0  0  0  0  0  0  0  0  0  0  0  0
  -29.8740   16.3384  -14.9541 O   0  0  0  0  0  0  0  0  0  0  0  0
  -28.9380   14.5142  -15.8769 N   0  0  0  0  0  0  0  0  0  0  0  0
  -28.4497   13.7031  -16.8875 C   0  0  0  0  0  0  0  0  0  0  0  0
  -28.5303   13.9666  -18.0842 O   0  0  0  0  0  0  0  0  0  0  0  0
  -27.8506   12.4139  -16.3565 C   0  0  0  0  0  0  0  0  0  0  0  0
  -26.3469   12.3312  -16.6229 C   0  0  0  0  0  0  0  0  0  0  0  0
  -25.5387   13.3705  -15.8559 C   0  0  0  0  0  0  0  0  0  0  0  0
  -25.8033   15.0143  -16.4804 Cl  0  0  0  0  0  0  0  0  0  0  0  0
  -29.3212   15.6947  -17.9941 H   0  0  0  0  0  0  0  0  0  0  0  0
  -28.8920   14.1887  -14.9224 H   0  0  0  0  0  0  0  0  0  0  0  0
  1  2  1  0  0  0  0
  2  3  1  0  0  0  0
  2 12  1  0  0  0  0
  3  4  2  0  0  0  0
  3  5  1  0  0  0  0
  5  6  1  0  0  0  0
  5 13  1  0  0  0  0
  6  7  2  0  0  0  0
  6  8  1  0  0  0  0
  8  9  1  0  0  0  0
  9 10  1  0  0  0  0
 10 11  1  0  0  0  0
M  END
>  <CHROM.0>
-58.56734273,-51.17747022,-70.32936734,-42.89466703,-175.80799472,-176.40114696
-169.85476558,-56.70736912,-168.76275872

>  <CHROM.1>
-115.05412582,66.32195813,-70.51730564,-27.95848859,14.73727545,-16.52611713
-2.43600367,0.10855034,-3.05950008

>  <Name>
P60619143

>  <RI>
0

>  <Rbt.Current_Directory>
/home/fstefaniak/projects/zuza/docking/adenine/4TZX

>  <Rbt.Executable>
rbdock ($Id: //depot/dev/client3/rdock/2013.1/src/exe/rbdock.cxx#4 $)

>  <Rbt.Library>
libRbt.so (2013.1, Build901 2013/11/27)

>  <Rbt.Parameter_File>
/home/fstefaniak/progs/rDock//data/scripts/dock_solv.prm

>  <Rbt.Receptor>
4tzx.prm

>  <SCORE>
-42.1617

>  <SCORE.INTER>
-22.342

>  <SCORE.INTER.CONST>
1

>  <SCORE.INTER.POLAR>
-2.55402

>  <SCORE.INTER.ROT>
3

>  <SCORE.INTER.SOLV>
11.8422

>  <SCORE.INTER.VDW>
-15.9287

>  <SCORE.INTER.norm>
-2.03109

>  <SCORE.INTRA>
0.269586

>  <SCORE.INTRA.DIHEDRAL>
1.94787

>  <SCORE.INTRA.DIHEDRAL.0>
1.32037

>  <SCORE.INTRA.POLAR>
0

>  <SCORE.INTRA.POLAR.0>
0

>  <SCORE.INTRA.REPUL>
0

>  <SCORE.INTRA.REPUL.0>
0

>  <SCORE.INTRA.SOLV>
1.12014

>  <SCORE.INTRA.SOLV.lig_0>
-18.6908

>  <SCORE.INTRA.VDW>
-1.26442

>  <SCORE.INTRA.VDW.0>
0.151225

>  <SCORE.INTRA.norm>
0.0245078

>  <SCORE.RESTR>
0

>  <SCORE.RESTR.CAVITY>
0

>  <SCORE.RESTR.norm>
0

>  <SCORE.SYSTEM>
-20.0893

>  <SCORE.SYSTEM.CONST>
0

>  <SCORE.SYSTEM.DIHEDRAL>
5.49281

>  <SCORE.SYSTEM.POLAR>
-3.05387

>  <SCORE.SYSTEM.SOLV>
-0.119605

>  <SCORE.SYSTEM.VDW>
-5.00437

>  <SCORE.SYSTEM.norm>
-1.8263

>  <SCORE.heavy>
11

>  <SCORE.norm>
-3.83288

$$$$
P61273721
 OpenBabel12072022113D
libRbt.so/2013.1/901 2013/11/27
 13 12  0  0  0  0  0  0  0  0999 V2000
  -28.7199   14.8202  -16.5108 C   0  0  0  0  0  0  0  0  0  0  0  0
  -29.9613   15.6310  -16.1471 C   0  0  0  0  0  0  0  0  0  0  0  0
  -29.7651   17.1711  -16.1028 C   0  0  2  0  0  0  0  0  0  0  0  0
  -28.6075   17.5774  -15.1734 C   0  0  0  0  0  0  0  0  0  0  0  0
  -31.0152   17.8035  -15.5887 C   0  0  0  0  0  0  0  0  0  0  0  0
  -31.9851   18.3221  -15.2147 N   0  0  0  0  0  0  0  0  0  0  0  0
  -29.5353   17.6977  -17.4659 N   0  0  0  0  0  0  0  0  0  0  0  0
  -30.4574   18.4025  -18.1727 C   0  0  0  0  0  0  0  0  0  0  0  0
  -31.1351   17.9831  -19.0957 O   0  0  0  0  0  0  0  0  0  0  0  0
  -30.5589   19.6845  -17.7413 N   0  0  0  0  0  0  0  0  0  0  0  0
  -28.8771   17.1898  -18.0420 H   0  0  0  0  0  0  0  0  0  0  0  0
  -29.9568   19.9600  -16.9784 H   0  0  0  0  0  0  0  0  0  0  0  0
  -31.5187   19.9952  -17.6455 H   0  0  0  0  0  0  0  0  0  0  0  0
  1  2  1  0  0  0  0
  3  5  1  0  0  0  0
  3  7  1  0  0  0  0
  3  4  1  1  0  0  0
  3  2  1  0  0  0  0
  5  6  3  0  0  0  0
  7  8  1  0  0  0  0
  7 11  1  0  0  0  0
  8  9  2  0  0  0  0
  8 10  1  0  0  0  0
 10 12  1  0  0  0  0
 10 13  1  0  0  0  0
M  END
>  <CHROM.0>
-57.11388021,-62.76995164,-66.69421815,-41.87527391,-55.25608670,-59.52912232
-65.32703873,-57.88381617,-169.06750786

>  <CHROM.1>
106.44462657,-54.28742111,-103.66491217,0.39238691,-30.15428684,17.51758547
-16.76404980,-0.60794929,0.99001249,-1.45682901

>  <Name>
P61273721

>  <RI>
0

>  <Rbt.Current_Directory>
/home/fstefaniak/projects/zuza/docking/adenine/4TZX

>  <Rbt.Executable>
rbdock ($Id: //depot/dev/client3/rdock/2013.1/src/exe/rbdock.cxx#4 $)

>  <Rbt.Library>
libRbt.so (2013.1, Build901 2013/11/27)

>  <Rbt.Parameter_File>
/home/fstefaniak/progs/rDock//data/scripts/dock_solv.prm

>  <Rbt.Receptor>
4tzx.prm

>  <SCORE>
-46.855

>  <SCORE.INTER>
-26.1734

>  <SCORE.INTER.CONST>
1

>  <SCORE.INTER.POLAR>
-4.09385

>  <SCORE.INTER.ROT>
4

>  <SCORE.INTER.SOLV>
13.3872

>  <SCORE.INTER.VDW>
-14.5318

>  <SCORE.INTER.norm>
-2.61734

>  <SCORE.INTRA>
0.369635

>  <SCORE.INTRA.DIHEDRAL>
0.765264

>  <SCORE.INTRA.DIHEDRAL.0>
1.67245

>  <SCORE.INTRA.POLAR>
0

>  <SCORE.INTRA.POLAR.0>
0

>  <SCORE.INTRA.REPUL>
0

>  <SCORE.INTRA.REPUL.0>
0

>  <SCORE.INTRA.SOLV>
0.93415

>  <SCORE.INTRA.SOLV.lig_0>
-14.2068

>  <SCORE.INTRA.VDW>
-0.480072

>  <SCORE.INTRA.VDW.0>
1.31633

>  <SCORE.INTRA.norm>
0.0369635

>  <SCORE.RESTR>
0

>  <SCORE.RESTR.CAVITY>
0

>  <SCORE.RESTR.norm>
0

>  <SCORE.SYSTEM>
-21.0512

>  <SCORE.SYSTEM.CONST>
0

>  <SCORE.SYSTEM.DIHEDRAL>
4.64182

>  <SCORE.SYSTEM.POLAR>
-3.09429

>  <SCORE.SYSTEM.SOLV>
0.205792

>  <SCORE.SYSTEM.VDW>
-5.33572

>  <SCORE.SYSTEM.norm>
-2.10512

>  <SCORE.heavy>
10

>  <SCORE.norm>
-4.6855

$$$$
P61273721
 OpenBabel12072022113D
libRbt.so/2013.1/901 2013/11/27
 13 12  0  0  0  0  0  0  0  0999 V2000
  -28.4748   14.4919  -16.1114 C   0  0  0  0  0  0  0  0  0  0  0  0
  -29.3651   15.4099  -16.9453 C   0  0  0  0  0  0  0  0  0  0  0  0
  -29.6895   16.7879  -16.3063 C   0  0  2  0  0  0  0  0  0  0  0  0
  -29.9618   17.8661  -17.3704 C   0  0  0  0  0  0  0  0  0  0  0  0
  -28.5215   17.2291  -15.4888 C   0  0  0  0  0  0  0  0  0  0  0  0
  -27.6360   17.5837  -14.8258 N   0  0  0  0  0  0  0  0  0  0  0  0
  -30.8458   16.6689  -15.3914 N   0  0  0  0  0  0  0  0  0  0  0  0
  -31.2654   17.6630  -14.5654 C   0  0  0  0  0  0  0  0  0  0  0  0
  -32.1386   18.4801  -14.8039 O   0  0  0  0  0  0  0  0  0  0  0  0
  -30.5866   17.6701  -13.3911 N   0  0  0  0  0  0  0  0  0  0  0  0
  -31.0664   15.7391  -15.0599 H   0  0  0  0  0  0  0  0  0  0  0  0
  -31.1292   17.5497  -12.5476 H   0  0  0  0  0  0  0  0  0  0  0  0
  -29.8952   18.4092  -13.3379 H   0  0  0  0  0  0  0  0  0  0  0  0
  1  2  1  0  0  0  0
  3  5  1  0  0  0  0
  3  7  1  0  0  0  0
  3  4  1  6  0  0  0
  3  2  1  0  0  0  0
  5  6  3  0  0  0  0
  7  8  1  0  0  0  0
  7 11  1  0  0  0  0
  8  9  2  0  0  0  0
  8 10  1  0  0  0  0
 10 12  1  0  0  0  0
 10 13  1  0  0  0  0
M  END
>  <CHROM.0>
-55.86087739,-60.38856808,58.62429398,-43.05641453,-53.43040353,-53.75824339
55.90797123,-172.72292572,-168.66687150

>  <CHROM.1>
171.76927485,152.27993905,94.63589695,-120.24115892,-29.89074739,16.98926343
-15.49058236,-0.76804519,-0.38070651,1.05588157

>  <Name>
P61273721

>  <RI>
0

>  <Rbt.Current_Directory>
/home/fstefaniak/projects/zuza/docking/adenine/4TZX

>  <Rbt.Executable>
rbdock ($Id: //depot/dev/client3/rdock/2013.1/src/exe/rbdock.cxx#4 $)

>  <Rbt.Library>
libRbt.so (2013.1, Build901 2013/11/27)

>  <Rbt.Parameter_File>
/home/fstefaniak/progs/rDock//data/scripts/dock_solv.prm

>  <Rbt.Receptor>
4tzx.prm

>  <SCORE>
-46.6688

>  <SCORE.INTER>
-28.9909

>  <SCORE.INTER.CONST>
1

>  <SCORE.INTER.POLAR>
-4.24256

>  <SCORE.INTER.ROT>
4

>  <SCORE.INTER.SOLV>
11.8982

>  <SCORE.INTER.VDW>
-15.4181

>  <SCORE.INTER.norm>
-2.89909

>  <SCORE.INTRA>
1.20126

>  <SCORE.INTRA.DIHEDRAL>
2.50645

>  <SCORE.INTRA.DIHEDRAL.0>
1.67245

>  <SCORE.INTRA.POLAR>
0

>  <SCORE.INTRA.POLAR.0>
0

>  <SCORE.INTRA.REPUL>
0

>  <SCORE.INTRA.REPUL.0>
0

>  <SCORE.INTRA.SOLV>
0.823633

>  <SCORE.INTRA.SOLV.lig_0>
-14.2068

>  <SCORE.INTRA.VDW>
-0.463777

>  <SCORE.INTRA.VDW.0>
1.31633

>  <SCORE.INTRA.norm>
0.120126

>  <SCORE.RESTR>
0

>  <SCORE.RESTR.CAVITY>
0

>  <SCORE.RESTR.norm>
0

>  <SCORE.SYSTEM>
-18.8792

>  <SCORE.SYSTEM.CONST>
0

>  <SCORE.SYSTEM.DIHEDRAL>
4.74937

>  <SCORE.SYSTEM.POLAR>
-3.09992

>  <SCORE.SYSTEM.SOLV>
-0.0286903

>  <SCORE.SYSTEM.VDW>
-3.82661

>  <SCORE.SYSTEM.norm>
-1.88792

>  <SCORE.heavy>
10

>  <SCORE.norm>
-4.66688

$$$$
P61273721
 OpenBabel12072022113D
libRbt.so/2013.1/901 2013/11/27
 13 12  0  0  0  0  0  0  0  0999 V2000
  -28.6580   14.4840  -16.1067 C   0  0  0  0  0  0  0  0  0  0  0  0
  -29.3930   15.5070  -16.9693 C   0  0  0  0  0  0  0  0  0  0  0  0
  -29.7039   16.8634  -16.2794 C   0  0  2  0  0  0  0  0  0  0  0  0
  -29.9826   17.9790  -17.3024 C   0  0  0  0  0  0  0  0  0  0  0  0
  -28.5251   17.2708  -15.4600 C   0  0  0  0  0  0  0  0  0  0  0  0
  -27.6308   17.5983  -14.7948 N   0  0  0  0  0  0  0  0  0  0  0  0
  -30.8508   16.7178  -15.3566 N   0  0  0  0  0  0  0  0  0  0  0  0
  -31.2649   17.6893  -14.5014 C   0  0  0  0  0  0  0  0  0  0  0  0
  -32.1539   18.4990  -14.7039 O   0  0  0  0  0  0  0  0  0  0  0  0
  -30.5601   17.6821  -13.3425 N   0  0  0  0  0  0  0  0  0  0  0  0
  -31.0656   15.7792  -15.0467 H   0  0  0  0  0  0  0  0  0  0  0  0
  -31.0830   17.5448  -12.4892 H   0  0  0  0  0  0  0  0  0  0  0  0
  -29.8723   18.4247  -13.2928 H   0  0  0  0  0  0  0  0  0  0  0  0
  1  2  1  0  0  0  0
  3  5  1  0  0  0  0
  3  7  1  0  0  0  0
  3  4  1  6  0  0  0
  3  2  1  0  0  0  0
  5  6  3  0  0  0  0
  7  8  1  0  0  0  0
  7 11  1  0  0  0  0
  8  9  2  0  0  0  0
  8 10  1  0  0  0  0
 10 12  1  0  0  0  0
 10 13  1  0  0  0  0
M  END
>  <CHROM.0>
-61.14209701,-64.47324065,-63.58721956,52.40451661,-174.53121521,-60.85933969
-65.20423171,-171.41204215,-168.13876574

>  <CHROM.1>
172.44671025,160.16165996,95.62151584,-120.71601303,-29.91530699,17.03232547
-15.45152424,-0.80090576,-0.36154394,1.04316380

>  <Name>
P61273721

>  <RI>
0

>  <Rbt.Current_Directory>
/home/fstefaniak/projects/zuza/docking/adenine/4TZX

>  <Rbt.Executable>
rbdock ($Id: //depot/dev/client3/rdock/2013.1/src/exe/rbdock.cxx#4 $)

>  <Rbt.Library>
libRbt.so (2013.1, Build901 2013/11/27)

>  <Rbt.Parameter_File>
/home/fstefaniak/progs/rDock//data/scripts/dock_solv.prm

>  <Rbt.Receptor>
4tzx.prm

>  <SCORE>
-45.8928

>  <SCORE.INTER>
-28.012

>  <SCORE.INTER.CONST>
1

>  <SCORE.INTER.POLAR>
-4.20482

>  <SCORE.INTER.ROT>
4

>  <SCORE.INTER.SOLV>
11.9443

>  <SCORE.INTER.VDW>
-14.9067

>  <SCORE.INTER.norm>
-2.8012

>  <SCORE.INTRA>
0.238081

>  <SCORE.INTRA.DIHEDRAL>
1.41117

>  <SCORE.INTRA.DIHEDRAL.0>
1.67245

>  <SCORE.INTRA.POLAR>
0

>  <SCORE.INTRA.POLAR.0>
0

>  <SCORE.INTRA.REPUL>
0

>  <SCORE.INTRA.REPUL.0>
0

>  <SCORE.INTRA.SOLV>
0.846757

>  <SCORE.INTRA.SOLV.lig_0>
-14.2068

>  <SCORE.INTRA.VDW>
-0.890884

>  <SCORE.INTRA.VDW.0>
1.31633

>  <SCORE.INTRA.norm>
0.0238081

>  <SCORE.RESTR>
0

>  <SCORE.RESTR.CAVITY>
0

>  <SCORE.RESTR.norm>
0

>  <SCORE.SYSTEM>
-18.1189

>  <SCORE.SYSTEM.CONST>
0

>  <SCORE.SYSTEM.DIHEDRAL>
3.76321

>  <SCORE.SYSTEM.POLAR>
-2.46829

>  <SCORE.SYSTEM.SOLV>
-0.194195

>  <SCORE.SYSTEM.VDW>
-5.04131

>  <SCORE.SYSTEM.norm>
-1.81189

>  <SCORE.heavy>
10

>  <SCORE.norm>
-4.58928

$$$$
P61281466
 OpenBabel12072022113D
libRbt.so/2013.1/901 2013/11/27
 16 16  0  0  0  0  0  0  0  0999 V2000
  -24.0216   10.3574  -13.9516 C   0  0  0  0  0  0  0  0  0  0  0  0
  -23.7346   11.7300  -14.3665 N   0  0  0  0  0  0  0  0  0  0  0  0
  -23.4107   11.8332  -15.7929 C   0  0  0  0  0  0  0  0  0  0  0  0
  -24.6225   11.6715  -16.7058 C   0  0  0  0  0  0  0  0  0  0  0  0
  -25.7511   12.6674  -16.3548 C   0  0  0  0  0  0  0  0  0  0  0  0
  -26.0533   12.5579  -14.8408 C   0  0  0  0  0  0  0  0  0  0  0  0
  -24.7898   12.6704  -13.9881 C   0  0  0  0  0  0  0  0  0  0  0  0
  -27.0105   12.2382  -17.0897 C   0  0  0  0  0  0  0  0  0  0  0  0
  -28.0552   11.8822  -17.6994 N   0  0  0  0  0  0  0  0  0  0  0  0
  -25.4184   14.0712  -16.6714 N   0  0  0  0  0  0  0  0  0  0  0  0
  -26.2096   15.1149  -16.2960 C   0  0  0  0  0  0  0  0  0  0  0  0
  -27.4173   15.0869  -16.1376 O   0  0  0  0  0  0  0  0  0  0  0  0
  -25.4916   16.2498  -16.1067 N   0  0  0  0  0  0  0  0  0  0  0  0
  -24.4383   14.3132  -16.6229 H   0  0  0  0  0  0  0  0  0  0  0  0
  -24.4859   16.1601  -16.1367 H   0  0  0  0  0  0  0  0  0  0  0  0
  -25.8509   17.0342  -16.6394 H   0  0  0  0  0  0  0  0  0  0  0  0
  1  2  1  0  0  0  0
  2  3  1  0  0  0  0
  2  7  1  0  0  0  0
  3  4  1  0  0  0  0
  4  5  1  0  0  0  0
  5  6  1  0  0  0  0
  5  8  1  0  0  0  0
  5 10  1  0  0  0  0
  6  7  1  0  0  0  0
  8  9  3  0  0  0  0
 10 11  1  0  0  0  0
 10 14  1  0  0  0  0
 11 12  2  0  0  0  0
 11 13  1  0  0  0  0
 13 15  1  0  0  0  0
 13 16  1  0  0  0  0
M  END
>  <CHROM.0>
-59.63257049,52.73948510,-71.27498328,-43.00390770,-57.08233547,-58.05219157
-168.79397118,-60.03132491,-169.83833366

>  <CHROM.1>
-172.08936524,-29.07974233,-8.09467577,-25.51304615,12.97664894,-15.82471221
0.80085473,0.66406392,-3.09703363

>  <Name>
P61281466

>  <RI>
0

>  <Rbt.Current_Directory>
/home/fstefaniak/projects/zuza/docking/adenine/4TZX

>  <Rbt.Executable>
rbdock ($Id: //depot/dev/client3/rdock/2013.1/src/exe/rbdock.cxx#4 $)

>  <Rbt.Library>
libRbt.so (2013.1, Build901 2013/11/27)

>  <Rbt.Parameter_File>
/home/fstefaniak/progs/rDock//data/scripts/dock_solv.prm

>  <Rbt.Receptor>
4tzx.prm

>  <SCORE>
-37.2925

>  <SCORE.INTER>
-19.2676

>  <SCORE.INTER.CONST>
1

>  <SCORE.INTER.POLAR>
-3.01044

>  <SCORE.INTER.ROT>
3

>  <SCORE.INTER.SOLV>
8.42889

>  <SCORE.INTER.VDW>
-11.2199

>  <SCORE.INTER.norm>
-1.48213

>  <SCORE.INTRA>
0.748596

>  <SCORE.INTRA.DIHEDRAL>
0.371089

>  <SCORE.INTRA.DIHEDRAL.0>
1.23845

>  <SCORE.INTRA.POLAR>
0

>  <SCORE.INTRA.POLAR.0>
0

>  <SCORE.INTRA.REPUL>
0

>  <SCORE.INTRA.REPUL.0>
0

>  <SCORE.INTRA.SOLV>
0.275252

>  <SCORE.INTRA.SOLV.lig_0>
-18.131

>  <SCORE.INTRA.VDW>
0.425426

>  <SCORE.INTRA.VDW.0>
-0.898433

>  <SCORE.INTRA.norm>
0.0575843

>  <SCORE.RESTR>
0.910173

>  <SCORE.RESTR.CAVITY>
0.910173

>  <SCORE.RESTR.norm>
0.0700133

>  <SCORE.SYSTEM>
-19.6836

>  <SCORE.SYSTEM.CONST>
0

>  <SCORE.SYSTEM.DIHEDRAL>
5.30685

>  <SCORE.SYSTEM.POLAR>
-3.04576

>  <SCORE.SYSTEM.SOLV>
0.258528

>  <SCORE.SYSTEM.VDW>
-4.82503

>  <SCORE.SYSTEM.norm>
-1.51413

>  <SCORE.heavy>
13

>  <SCORE.norm>
-2.86865

$$$$
P61281466
 OpenBabel12072022113D
libRbt.so/2013.1/901 2013/11/27
 16 16  0  0  0  0  0  0  0  0999 V2000
  -32.3184   18.3221  -17.1066 C   0  0  0  0  0  0  0  0  0  0  0  0
  -31.1862   18.6401  -16.2373 N   0  0  0  0  0  0  0  0  0  0  0  0
  -31.0946   17.7462  -15.0787 C   0  0  0  0  0  0  0  0  0  0  0  0
  -30.6015   16.3451  -15.4280 C   0  0  0  0  0  0  0  0  0  0  0  0
  -29.2467   16.3748  -16.1711 C   0  0  0  0  0  0  0  0  0  0  0  0
  -29.3625   17.3457  -17.3709 C   0  0  0  0  0  0  0  0  0  0  0  0
  -29.9163   18.7099  -16.9609 C   0  0  0  0  0  0  0  0  0  0  0  0
  -28.9878   14.9912  -16.7447 C   0  0  0  0  0  0  0  0  0  0  0  0
  -28.7731   13.8433  -17.2206 N   0  0  0  0  0  0  0  0  0  0  0  0
  -28.1173   16.8039  -15.3215 N   0  0  0  0  0  0  0  0  0  0  0  0
  -26.8255   16.7841  -15.7539 C   0  0  0  0  0  0  0  0  0  0  0  0
  -26.4004   16.2040  -16.7373 O   0  0  0  0  0  0  0  0  0  0  0  0
  -26.0114   17.5065  -14.9446 N   0  0  0  0  0  0  0  0  0  0  0  0
  -28.2948   17.5971  -14.7207 H   0  0  0  0  0  0  0  0  0  0  0  0
  -25.1917   17.0352  -14.5890 H   0  0  0  0  0  0  0  0  0  0  0  0
  -25.8281   18.4371  -15.3030 H   0  0  0  0  0  0  0  0  0  0  0  0
  1  2  1  0  0  0  0
  2  3  1  0  0  0  0
  2  7  1  0  0  0  0
  3  4  1  0  0  0  0
  4  5  1  0  0  0  0
  5  6  1  0  0  0  0
  5  8  1  0  0  0  0
  5 10  1  0  0  0  0
  6  7  1  0  0  0  0
  8  9  3  0  0  0  0
 10 11  1  0  0  0  0
 10 14  1  0  0  0  0
 11 12  2  0  0  0  0
 11 13  1  0  0  0  0
 13 15  1  0  0  0  0
 13 16  1  0  0  0  0
M  END
>  <CHROM.0>
-58.22818358,66.64815945,-60.63803847,-45.10180144,-57.34205035,-61.94846464
-66.32522100,-61.03071609,-168.86102320

>  <CHROM.1>
174.10213391,-14.79993145,126.85511901,-29.11113177,16.93535059,-16.22477040
2.80402243,-0.20780679,0.30737107

>  <Name>
P61281466

>  <RI>
0

>  <Rbt.Current_Directory>
/home/fstefaniak/projects/zuza/docking/adenine/4TZX

>  <Rbt.Executable>
rbdock ($Id: //depot/dev/client3/rdock/2013.1/src/exe/rbdock.cxx#4 $)

>  <Rbt.Library>
libRbt.so (2013.1, Build901 2013/11/27)

>  <Rbt.Parameter_File>
/home/fstefaniak/progs/rDock//data/scripts/dock_solv.prm

>  <Rbt.Receptor>
4tzx.prm

>  <SCORE>
-37.1229

>  <SCORE.INTER>
-17.2778

>  <SCORE.INTER.CONST>
1

>  <SCORE.INTER.POLAR>
-3.82634

>  <SCORE.INTER.ROT>
3

>  <SCORE.INTER.SOLV>
14.6083

>  <SCORE.INTER.VDW>
-9.2335

>  <SCORE.INTER.norm>
-1.32906

>  <SCORE.INTRA>
0.0953065

>  <SCORE.INTRA.DIHEDRAL>
-0.0416326

>  <SCORE.INTRA.DIHEDRAL.0>
1.23845

>  <SCORE.INTRA.POLAR>
0

>  <SCORE.INTRA.POLAR.0>
0

>  <SCORE.INTRA.REPUL>
0

>  <SCORE.INTRA.REPUL.0>
0

>  <SCORE.INTRA.SOLV>
0.218065

>  <SCORE.INTRA.SOLV.lig_0>
-18.131

>  <SCORE.INTRA.VDW>
0.00709051

>  <SCORE.INTRA.VDW.0>
-0.898433

>  <SCORE.INTRA.norm>
0.00733127

>  <SCORE.RESTR>
0

>  <SCORE.RESTR.CAVITY>
0

>  <SCORE.RESTR.norm>
0

>  <SCORE.SYSTEM>
-19.9404

>  <SCORE.SYSTEM.CONST>
0

>  <SCORE.SYSTEM.DIHEDRAL>
4.1447

>  <SCORE.SYSTEM.POLAR>
-3.01286

>  <SCORE.SYSTEM.SOLV>
0.227487

>  <SCORE.SYSTEM.VDW>
-4.70814

>  <SCORE.SYSTEM.norm>
-1.53388

>  <SCORE.heavy>
13

>  <SCORE.norm>
-2.85561

$$$$
P61281466
 OpenBabel12072022113D
libRbt.so/2013.1/901 2013/11/27
 16 16  0  0  0  0  0  0  0  0999 V2000
  -32.2985   18.3397  -17.1860 C   0  0  0  0  0  0  0  0  0  0  0  0
  -31.1874   18.6460  -16.2858 N   0  0  0  0  0  0  0  0  0  0  0  0
  -31.1322   17.7461  -15.1295 C   0  0  0  0  0  0  0  0  0  0  0  0
  -30.6394   16.3434  -15.4725 C   0  0  0  0  0  0  0  0  0  0  0  0
  -29.2654   16.3672  -16.1797 C   0  0  0  0  0  0  0  0  0  0  0  0
  -29.3432   17.3444  -17.3774 C   0  0  0  0  0  0  0  0  0  0  0  0
  -29.8985   18.7105  -16.9755 C   0  0  0  0  0  0  0  0  0  0  0  0
  -29.0009   14.9845  -16.7529 C   0  0  0  0  0  0  0  0  0  0  0  0
  -28.7814   13.8375  -17.2285 N   0  0  0  0  0  0  0  0  0  0  0  0
  -28.1559   16.7847  -15.2987 N   0  0  0  0  0  0  0  0  0  0  0  0
  -26.8619   16.8333  -15.7221 C   0  0  0  0  0  0  0  0  0  0  0  0
  -26.4002   16.2777  -16.7031 O   0  0  0  0  0  0  0  0  0  0  0  0
  -26.0924   17.5962  -14.9063 N   0  0  0  0  0  0  0  0  0  0  0  0
  -28.3635   17.5356  -14.6548 H   0  0  0  0  0  0  0  0  0  0  0  0
  -25.2403   17.1757  -14.5634 H   0  0  0  0  0  0  0  0  0  0  0  0
  -25.9747   18.5425  -15.2510 H   0  0  0  0  0  0  0  0  0  0  0  0
  1  2  1  0  0  0  0
  2  3  1  0  0  0  0
  2  7  1  0  0  0  0
  3  4  1  0  0  0  0
  4  5  1  0  0  0  0
  5  6  1  0  0  0  0
  5  8  1  0  0  0  0
  5 10  1  0  0  0  0
  6  7  1  0  0  0  0
  8  9  3  0  0  0  0
 10 11  1  0  0  0  0
 10 14  1  0  0  0  0
 11 12  2  0  0  0  0
 11 13  1  0  0  0  0
 13 15  1  0  0  0  0
 13 16  1  0  0  0  0
M  END
>  <CHROM.0>
-62.58240855,67.80632436,-64.47734640,-39.98644014,60.75605521,-69.02421595
-64.18839178,-55.37828223,-169.06627728

>  <CHROM.1>
178.07998987,-18.18492374,128.27625434,-29.12829161,16.95181323,-16.23512320
2.81430373,-0.21877225,0.29890815

>  <Name>
P61281466

>  <RI>
0

>  <Rbt.Current_Directory>
/home/fstefaniak/projects/zuza/docking/adenine/4TZX

>  <Rbt.Executable>
rbdock ($Id: //depot/dev/client3/rdock/2013.1/src/exe/rbdock.cxx#4 $)

>  <Rbt.Library>
libRbt.so (2013.1, Build901 2013/11/27)

>  <Rbt.Parameter_File>
/home/fstefaniak/progs/rDock//data/scripts/dock_solv.prm

>  <Rbt.Receptor>
4tzx.prm

>  <SCORE>
-36.2457

>  <SCORE.INTER>
-17.3776

>  <SCORE.INTER.CONST>
1

>  <SCORE.INTER.POLAR>
-3.9583

>  <SCORE.INTER.ROT>
3

>  <SCORE.INTER.SOLV>
14.6263

>  <SCORE.INTER.VDW>
-8.86618

>  <SCORE.INTER.norm>
-1.33674

>  <SCORE.INTRA>
0.133446

>  <SCORE.INTRA.DIHEDRAL>
0.0325787

>  <SCORE.INTRA.DIHEDRAL.0>
1.23845

>  <SCORE.INTRA.POLAR>
0

>  <SCORE.INTRA.POLAR.0>
0

>  <SCORE.INTRA.REPUL>
0

>  <SCORE.INTRA.REPUL.0>
0

>  <SCORE.INTRA.SOLV>
0.221989

>  <SCORE.INTRA.SOLV.lig_0>
-18.131

>  <SCORE.INTRA.VDW>
0.00616274

>  <SCORE.INTRA.VDW.0>
-0.898433

>  <SCORE.INTRA.norm>
0.0102651

>  <SCORE.RESTR>
0

>  <SCORE.RESTR.CAVITY>
0

>  <SCORE.RESTR.norm>
0

>  <SCORE.SYSTEM>
-19.0015

>  <SCORE.SYSTEM.CONST>
0

>  <SCORE.SYSTEM.DIHEDRAL>
5.35952

>  <SCORE.SYSTEM.POLAR>
-3.08683

>  <SCORE.SYSTEM.SOLV>
-0.00436832

>  <SCORE.SYSTEM.VDW>
-4.16325

>  <SCORE.SYSTEM.norm>
-1.46165

>  <SCORE.heavy>
13

>  <SCORE.norm>
-2.78813

$$$$
P61362450
 OpenBabel12072022113D
libRbt.so/2013.1/901 2013/11/27
 16 16  0  0  0  0  0  0  0  0999 V2000
  -24.9482   16.9832  -16.4625 C   0  0  0  0  0  0  0  0  0  0  0  0
  -25.7409   15.8006  -15.9324 C   0  0  1  0  0  0  0  0  0  0  0  0
  -27.2759   16.0412  -16.0145 C   0  0  0  0  0  0  0  0  0  0  0  0
  -27.6985   16.9245  -15.1561 N   0  0  0  0  0  0  0  0  0  0  0  0
  -29.0418   17.1564  -15.0930 C   0  0  0  0  0  0  0  0  0  0  0  0
  -29.8201   17.6738  -14.0698 C   0  0  0  0  0  0  0  0  0  0  0  0
  -31.2003   17.7846  -14.4207 C   0  0  0  0  0  0  0  0  0  0  0  0
  -31.4357   17.3743  -15.7128 C   0  0  0  0  0  0  0  0  0  0  0  0
  -30.0026   16.8691  -16.4950 S   0  0  0  0  0  0  0  0  0  0  0  0
  -29.2731   18.0612  -12.8030 C   0  0  0  0  0  0  0  0  0  0  0  0
  -28.8499   18.4206  -11.7808 N   0  0  0  0  0  0  0  0  0  0  0  0
  -27.8743   15.3283  -16.8587 O   0  5  0  0  0  0  0  0  0  0  0  0
  -25.4915   14.6128  -16.7999 N   0  3  0  0  0  0  0  0  0  0  0  0
  -26.0718   13.8939  -16.3117 H   0  0  0  0  0  0  0  0  0  0  0  0
  -25.7527   14.6943  -17.7771 H   0  0  0  0  0  0  0  0  0  0  0  0
  -24.5383   14.2778  -16.6453 H   0  0  0  0  0  0  0  0  0  0  0  0
  2  1  1  6  0  0  0
  2  3  1  0  0  0  0
  2 13  1  0  0  0  0
  3  4  2  0  0  0  0
  3 12  1  0  0  0  0
  4  5  1  0  0  0  0
  5  6  2  0  0  0  0
  5  9  1  0  0  0  0
  6  7  1  0  0  0  0
  6 10  1  0  0  0  0
  7  8  2  0  0  0  0
  8  9  1  0  0  0  0
 10 11  3  0  0  0  0
 13 14  1  0  0  0  0
 13 15  1  0  0  0  0
 13 16  1  0  0  0  0
M  CHG  2  12  -1  13   1
M  END
>  <CHROM.0>
-58.18088574,-64.49352853,-44.40622301,-41.42742185,-54.81015902,-177.84078050
-62.23917289,-172.30047862,-167.34159547

>  <CHROM.1>
-71.16552925,178.89557852,157.16948647,-28.40516892,16.77813843,-15.39624002
-0.60793607,-0.18467441,1.09621586

>  <Name>
P61362450

>  <RI>
0

>  <Rbt.Current_Directory>
/home/fstefaniak/projects/zuza/docking/adenine/4TZX

>  <Rbt.Executable>
rbdock ($Id: //depot/dev/client3/rdock/2013.1/src/exe/rbdock.cxx#4 $)

>  <Rbt.Library>
libRbt.so (2013.1, Build901 2013/11/27)

>  <Rbt.Parameter_File>
/home/fstefaniak/progs/rDock//data/scripts/dock_solv.prm

>  <Rbt.Receptor>
4tzx.prm

>  <SCORE>
-63.1105

>  <SCORE.INTER>
-27.8282

>  <SCORE.INTER.CONST>
1

>  <SCORE.INTER.POLAR>
-3.59487

>  <SCORE.INTER.ROT>
2

>  <SCORE.INTER.SOLV>
21.9481

>  <SCORE.INTER.VDW>
-18.8186

>  <SCORE.INTER.norm>
-2.14063

>  <SCORE.INTRA>
-15.0253

>  <SCORE.INTRA.DIHEDRAL>
-33.1184

>  <SCORE.INTRA.DIHEDRAL.0>
42.7175

>  <SCORE.INTRA.POLAR>
0

>  <SCORE.INTRA.POLAR.0>
0

>  <SCORE.INTRA.REPUL>
0

>  <SCORE.INTRA.REPUL.0>
0

>  <SCORE.INTRA.SOLV>
-1.10094

>  <SCORE.INTRA.SOLV.lig_0>
-47.5218

>  <SCORE.INTRA.VDW>
2.08437

>  <SCORE.INTRA.VDW.0>
-0.0855599

>  <SCORE.INTRA.norm>
-1.15579

>  <SCORE.RESTR>
0

>  <SCORE.RESTR.CAVITY>
0

>  <SCORE.RESTR.norm>
0

>  <SCORE.SYSTEM>
-20.257

>  <SCORE.SYSTEM.CONST>
0

>  <SCORE.SYSTEM.DIHEDRAL>
5.94598

>  <SCORE.SYSTEM.POLAR>
-3.23013

>  <SCORE.SYSTEM.SOLV>
-0.0188195

>  <SCORE.SYSTEM.VDW>
-4.7133

>  <SCORE.SYSTEM.norm>
-1.55823

>  <SCORE.heavy>
13

>  <SCORE.norm>
-4.85465

$$$$
P61362450
 OpenBabel12072022113D
libRbt.so/2013.1/901 2013/11/27
 16 16  0  0  0  0  0  0  0  0999 V2000
  -25.8506   14.2033  -16.1051 C   0  0  0  0  0  0  0  0  0  0  0  0
  -26.1971   15.6183  -16.5359 C   0  0  1  0  0  0  0  0  0  0  0  0
  -27.6628   15.9971  -16.1762 C   0  0  0  0  0  0  0  0  0  0  0  0
  -27.7422   16.8269  -15.1758 N   0  0  0  0  0  0  0  0  0  0  0  0
  -28.9865   17.1666  -14.7302 C   0  0  0  0  0  0  0  0  0  0  0  0
  -29.3813   17.8372  -13.5835 C   0  0  0  0  0  0  0  0  0  0  0  0
  -30.7956   18.0203  -13.5038 C   0  0  0  0  0  0  0  0  0  0  0  0
  -31.4421   17.5088  -14.6055 C   0  0  0  0  0  0  0  0  0  0  0  0
  -30.3500   16.8227  -15.7270 S   0  0  0  0  0  0  0  0  0  0  0  0
  -28.4481   18.2996  -12.5988 C   0  0  0  0  0  0  0  0  0  0  0  0
  -27.7105   18.7206  -11.8040 N   0  0  0  0  0  0  0  0  0  0  0  0
  -28.5386   15.4229  -16.8706 O   0  5  0  0  0  0  0  0  0  0  0  0
  -25.3530   16.5847  -15.7750 N   0  3  0  0  0  0  0  0  0  0  0  0
  -25.5549   17.4674  -16.2967 H   0  0  0  0  0  0  0  0  0  0  0  0
  -25.5519   16.6889  -14.7854 H   0  0  0  0  0  0  0  0  0  0  0  0
  -24.3687   16.4140  -15.9910 H   0  0  0  0  0  0  0  0  0  0  0  0
  2  1  1  1  0  0  0
  2  3  1  0  0  0  0
  2 13  1  0  0  0  0
  3  4  2  0  0  0  0
  3 12  1  0  0  0  0
  4  5  1  0  0  0  0
  5  6  2  0  0  0  0
  5  9  1  0  0  0  0
  6  7  1  0  0  0  0
  6 10  1  0  0  0  0
  7  8  2  0  0  0  0
  8  9  1  0  0  0  0
 10 11  3  0  0  0  0
 13 14  1  0  0  0  0
 13 15  1  0  0  0  0
 13 16  1  0  0  0  0
M  CHG  2  12  -1  13   1
M  END
>  <CHROM.0>
-61.38941053,-62.19138348,-65.11939011,-43.23624446,-63.63567701,-172.93161631
-70.49637479,-55.56618579,-167.56044668

>  <CHROM.1>
106.53669243,169.30503700,168.49640099,-28.43953049,16.79511758,-15.00464267
-0.74561361,-0.14179973,0.95754363

>  <Name>
P61362450

>  <RI>
0

>  <Rbt.Current_Directory>
/home/fstefaniak/projects/zuza/docking/adenine/4TZX

>  <Rbt.Executable>
rbdock ($Id: //depot/dev/client3/rdock/2013.1/src/exe/rbdock.cxx#4 $)

>  <Rbt.Library>
libRbt.so (2013.1, Build901 2013/11/27)

>  <Rbt.Parameter_File>
/home/fstefaniak/progs/rDock//data/scripts/dock_solv.prm

>  <Rbt.Receptor>
4tzx.prm

>  <SCORE>
-62.5261

>  <SCORE.INTER>
-24.3664

>  <SCORE.INTER.CONST>
1

>  <SCORE.INTER.POLAR>
-3.37714

>  <SCORE.INTER.ROT>
2

>  <SCORE.INTER.SOLV>
24.5913

>  <SCORE.INTER.VDW>
-18.1175

>  <SCORE.INTER.norm>
-1.87434

>  <SCORE.INTRA>
-17.3483

>  <SCORE.INTRA.DIHEDRAL>
-38.891

>  <SCORE.INTRA.DIHEDRAL.0>
42.7175

>  <SCORE.INTRA.POLAR>
0

>  <SCORE.INTRA.POLAR.0>
0

>  <SCORE.INTRA.REPUL>
0

>  <SCORE.INTRA.REPUL.0>
0

>  <SCORE.INTRA.SOLV>
-2.69934

>  <SCORE.INTRA.SOLV.lig_0>
-47.5218

>  <SCORE.INTRA.VDW>
3.44687

>  <SCORE.INTRA.VDW.0>
-0.0855599

>  <SCORE.INTRA.norm>
-1.33449

>  <SCORE.RESTR>
0

>  <SCORE.RESTR.CAVITY>
0

>  <SCORE.RESTR.norm>
0

>  <SCORE.SYSTEM>
-20.8114

>  <SCORE.SYSTEM.CONST>
0

>  <SCORE.SYSTEM.DIHEDRAL>
5.07948

>  <SCORE.SYSTEM.POLAR>
-3.05102

>  <SCORE.SYSTEM.SOLV>
0.0566269

>  <SCORE.SYSTEM.VDW>
-5.41621

>  <SCORE.SYSTEM.norm>
-1.60087

>  <SCORE.heavy>
13

>  <SCORE.norm>
-4.8097

$$$$
P61362450
 OpenBabel12072022113D
libRbt.so/2013.1/901 2013/11/27
 16 16  0  0  0  0  0  0  0  0999 V2000
  -26.3504   14.7833  -17.0193 C   0  0  0  0  0  0  0  0  0  0  0  0
  -27.5352   14.7251  -16.0703 C   0  0  1  0  0  0  0  0  0  0  0  0
  -28.3703   16.0377  -16.0957 C   0  0  0  0  0  0  0  0  0  0  0  0
  -29.1489   16.1245  -17.1359 N   0  0  0  0  0  0  0  0  0  0  0  0
  -29.8708   17.2717  -17.2945 C   0  0  0  0  0  0  0  0  0  0  0  0
  -30.5002   18.0772  -16.3588 C   0  0  0  0  0  0  0  0  0  0  0  0
  -31.1314   19.2188  -16.9407 C   0  0  0  0  0  0  0  0  0  0  0  0
  -30.9442   19.2700  -18.3030 C   0  0  0  0  0  0  0  0  0  0  0  0
  -30.0086   17.9570  -18.8701 S   0  0  0  0  0  0  0  0  0  0  0  0
  -30.4955   17.7814  -14.9565 C   0  0  0  0  0  0  0  0  0  0  0  0
  -30.4736   17.5870  -13.8098 N   0  0  0  0  0  0  0  0  0  0  0  0
  -28.1420   16.8233  -15.1420 O   0  5  0  0  0  0  0  0  0  0  0  0
  -28.4775   13.6616  -16.5247 N   0  3  0  0  0  0  0  0  0  0  0  0
  -29.2125   13.7282  -15.7849 H   0  0  0  0  0  0  0  0  0  0  0  0
  -28.8778   13.7674  -17.4511 H   0  0  0  0  0  0  0  0  0  0  0  0
  -28.0607   12.7452  -16.3481 H   0  0  0  0  0  0  0  0  0  0  0  0
  2  1  1  6  0  0  0
  2  3  1  0  0  0  0
  2 13  1  0  0  0  0
  3  4  2  0  0  0  0
  3 12  1  0  0  0  0
  4  5  1  0  0  0  0
  5  6  2  0  0  0  0
  5  9  1  0  0  0  0
  6  7  1  0  0  0  0
  6 10  1  0  0  0  0
  7  8  2  0  0  0  0
  8  9  1  0  0  0  0
 10 11  3  0  0  0  0
 13 14  1  0  0  0  0
 13 15  1  0  0  0  0
 13 16  1  0  0  0  0
M  CHG  2  12  -1  13   1
M  END
>  <CHROM.0>
-56.90519887,-63.17888184,61.93496800,-43.01533273,-55.10451936,-61.46193755
54.72554768,-60.24483843,-169.89550415

>  <CHROM.1>
77.68355321,179.09237238,-37.76769498,-29.33900444,16.87568795,-16.71402968
-0.32644440,0.88768921,-1.45801920

>  <Name>
P61362450

>  <RI>
0

>  <Rbt.Current_Directory>
/home/fstefaniak/projects/zuza/docking/adenine/4TZX

>  <Rbt.Executable>
rbdock ($Id: //depot/dev/client3/rdock/2013.1/src/exe/rbdock.cxx#4 $)

>  <Rbt.Library>
libRbt.so (2013.1, Build901 2013/11/27)

>  <Rbt.Parameter_File>
/home/fstefaniak/progs/rDock//data/scripts/dock_solv.prm

>  <Rbt.Receptor>
4tzx.prm

>  <SCORE>
-62.3713

>  <SCORE.INTER>
-32.2746

>  <SCORE.INTER.CONST>
1

>  <SCORE.INTER.POLAR>
-2.78785

>  <SCORE.INTER.ROT>
2

>  <SCORE.INTER.SOLV>
22.5715

>  <SCORE.INTER.VDW>
-24.6808

>  <SCORE.INTER.norm>
-2.48266

>  <SCORE.INTRA>
-11.0408

>  <SCORE.INTRA.DIHEDRAL>
-22.0202

>  <SCORE.INTRA.DIHEDRAL.0>
42.7175

>  <SCORE.INTRA.POLAR>
0

>  <SCORE.INTRA.POLAR.0>
0

>  <SCORE.INTRA.REPUL>
0

>  <SCORE.INTRA.REPUL.0>
0

>  <SCORE.INTRA.SOLV>
-0.617717

>  <SCORE.INTRA.SOLV.lig_0>
-47.5218

>  <SCORE.INTRA.VDW>
0.278109

>  <SCORE.INTRA.VDW.0>
-0.0855599

>  <SCORE.INTRA.norm>
-0.849294

>  <SCORE.RESTR>
0

>  <SCORE.RESTR.CAVITY>
0

>  <SCORE.RESTR.norm>
0

>  <SCORE.SYSTEM>
-19.0558

>  <SCORE.SYSTEM.CONST>
0

>  <SCORE.SYSTEM.DIHEDRAL>
4.22526

>  <SCORE.SYSTEM.POLAR>
-3.02995

>  <SCORE.SYSTEM.SOLV>
0.085699

>  <SCORE.SYSTEM.VDW>
-4.04101

>  <SCORE.SYSTEM.norm>
-1.46583

>  <SCORE.heavy>
13

>  <SCORE.norm>
-4.79779

$$$$
P61812363
 OpenBabel12072022113D
libRbt.so/2013.1/901 2013/11/27
 14 14  0  0  0  0  0  0  0  0999 V2000
  -24.4737   12.6202  -14.8945 C   0  0  0  0  0  0  0  0  0  0  0  0
  -25.4121   12.8837  -16.0657 C   0  0  1  0  0  0  0  0  0  0  0  0
  -26.7591   12.1776  -15.8841 C   0  0  0  0  0  0  0  0  0  0  0  0
  -27.7863   13.2187  -16.2915 C   0  0  0  0  0  0  0  0  0  0  0  0
  -27.1724   14.4567  -15.8064 N   0  0  0  0  0  0  0  0  0  0  0  0
  -25.7655   14.3676  -16.2258 C   0  0  0  0  0  0  0  0  0  0  0  0
  -27.8484   15.6423  -16.3717 C   0  0  0  0  0  0  0  0  0  0  0  0
  -28.9625   16.0903  -15.4174 C   0  0  0  0  0  0  0  0  0  0  0  0
  -28.7782   17.1650  -14.7080 N   0  0  0  0  0  0  0  0  0  0  0  0
  -29.8776   17.3940  -13.8637 O   0  0  0  0  0  0  0  0  0  0  0  0
  -30.0878   15.3003  -15.3506 N   0  0  0  0  0  0  0  0  0  0  0  0
  -29.8898   18.3673  -13.8063 H   0  0  0  0  0  0  0  0  0  0  0  0
  -30.6512   15.3698  -16.1946 H   0  0  0  0  0  0  0  0  0  0  0  0
  -29.8450   14.3502  -15.0918 H   0  0  0  0  0  0  0  0  0  0  0  0
  2  1  1  1  0  0  0
  2  3  1  0  0  0  0
  2  6  1  0  0  0  0
  3  4  1  0  0  0  0
  4  5  1  0  0  0  0
  5  6  1  0  0  0  0
  5  7  1  0  0  0  0
  7  8  1  0  0  0  0
  8  9  2  0  0  0  0
  8 11  1  0  0  0  0
  9 10  1  0  0  0  0
 10 12  1  0  0  0  0
 11 13  1  0  0  0  0
 11 14  1  0  0  0  0
M  END
>  <CHROM.0>
-59.70186798,-62.36481619,-67.58183312,-43.25907282,-52.95197693,-171.76373232
-67.97558017,-60.00844952,-168.48113741

>  <CHROM.1>
91.96144530,106.27523726,-71.31972465,-148.63651611,-27.59297419,14.70527264
-15.49791777,-0.78475880,-0.16640740,0.42313652

>  <Name>
P61812363

>  <RI>
0

>  <Rbt.Current_Directory>
/home/fstefaniak/projects/zuza/docking/adenine/4TZX

>  <Rbt.Executable>
rbdock ($Id: //depot/dev/client3/rdock/2013.1/src/exe/rbdock.cxx#4 $)

>  <Rbt.Library>
libRbt.so (2013.1, Build901 2013/11/27)

>  <Rbt.Parameter_File>
/home/fstefaniak/progs/rDock//data/scripts/dock_solv.prm

>  <Rbt.Receptor>
4tzx.prm

>  <SCORE>
-54.3637

>  <SCORE.INTER>
-33.9513

>  <SCORE.INTER.CONST>
1

>  <SCORE.INTER.POLAR>
-4.99825

>  <SCORE.INTER.ROT>
3

>  <SCORE.INTER.SOLV>
9.62849

>  <SCORE.INTER.VDW>
-14.7829

>  <SCORE.INTER.norm>
-3.08648

>  <SCORE.INTRA>
0.457152

>  <SCORE.INTRA.DIHEDRAL>
0.554555

>  <SCORE.INTRA.DIHEDRAL.0>
3.92023

>  <SCORE.INTRA.POLAR>
0.114201

>  <SCORE.INTRA.POLAR.0>
-0.114201

>  <SCORE.INTRA.REPUL>
0

>  <SCORE.INTRA.REPUL.0>
0

>  <SCORE.INTRA.SOLV>
-0.135595

>  <SCORE.INTRA.SOLV.lig_0>
-10.4883

>  <SCORE.INTRA.VDW>
-0.140612

>  <SCORE.INTRA.VDW.0>
-0.538962

>  <SCORE.INTRA.norm>
0.0415593

>  <SCORE.RESTR>
0

>  <SCORE.RESTR.CAVITY>
0

>  <SCORE.RESTR.norm>
0

>  <SCORE.SYSTEM>
-20.8695

>  <SCORE.SYSTEM.CONST>
0

>  <SCORE.SYSTEM.DIHEDRAL>
5.06822

>  <SCORE.SYSTEM.POLAR>
-3.061

>  <SCORE.SYSTEM.SOLV>
0.0686334

>  <SCORE.SYSTEM.VDW>
-5.42197

>  <SCORE.SYSTEM.norm>
-1.89723

>  <SCORE.heavy>
11

>  <SCORE.norm>
-4.94215

$$$$
P61812363
 OpenBabel12072022113D
libRbt.so/2013.1/901 2013/11/27
 14 14  0  0  0  0  0  0  0  0999 V2000
  -27.9118   13.2683  -17.8199 C   0  0  0  0  0  0  0  0  0  0  0  0
  -27.8309   14.1031  -16.5478 C   0  0  1  0  0  0  0  0  0  0  0  0
  -26.6852   15.1181  -16.6065 C   0  0  0  0  0  0  0  0  0  0  0  0
  -27.2904   16.3988  -16.0600 C   0  0  0  0  0  0  0  0  0  0  0  0
  -28.6617   16.3279  -16.5693 N   0  0  0  0  0  0  0  0  0  0  0  0
  -29.0893   14.9456  -16.3052 C   0  0  0  0  0  0  0  0  0  0  0  0
  -29.5297   17.3175  -15.8988 C   0  0  0  0  0  0  0  0  0  0  0  0
  -30.5035   17.9109  -16.9246 C   0  0  0  0  0  0  0  0  0  0  0  0
  -31.5892   18.4824  -16.4923 N   0  0  0  0  0  0  0  0  0  0  0  0
  -32.3771   18.9237  -17.5686 O   0  0  0  0  0  0  0  0  0  0  0  0
  -30.1763   17.7730  -18.2545 N   0  0  0  0  0  0  0  0  0  0  0  0
  -32.2696   19.8914  -17.5152 H   0  0  0  0  0  0  0  0  0  0  0  0
  -30.9572   17.4216  -18.8033 H   0  0  0  0  0  0  0  0  0  0  0  0
  -29.7689   18.6290  -18.6150 H   0  0  0  0  0  0  0  0  0  0  0  0
  2  1  1  6  0  0  0
  2  3  1  0  0  0  0
  2  6  1  0  0  0  0
  3  4  1  0  0  0  0
  4  5  1  0  0  0  0
  5  6  1  0  0  0  0
  5  7  1  0  0  0  0
  7  8  1  0  0  0  0
  8  9  2  0  0  0  0
  8 11  1  0  0  0  0
  9 10  1  0  0  0  0
 10 12  1  0  0  0  0
 11 13  1  0  0  0  0
 11 14  1  0  0  0  0
M  END
>  <CHROM.0>
-59.30389507,175.88779916,62.06179210,-41.97908477,-55.33132985,-59.72028313
58.47759541,58.42667202,-169.19090516

>  <CHROM.1>
141.54183004,159.76196231,131.25042504,-108.40498307,-29.29761240,16.46484581
-16.86723432,0.62706474,0.54434211,-2.62511303

>  <Name>
P61812363

>  <RI>
0

>  <Rbt.Current_Directory>
/home/fstefaniak/projects/zuza/docking/adenine/4TZX

>  <Rbt.Executable>
rbdock ($Id: //depot/dev/client3/rdock/2013.1/src/exe/rbdock.cxx#4 $)

>  <Rbt.Library>
libRbt.so (2013.1, Build901 2013/11/27)

>  <Rbt.Parameter_File>
/home/fstefaniak/progs/rDock//data/scripts/dock_solv.prm

>  <Rbt.Receptor>
4tzx.prm

>  <SCORE>
-52.4078

>  <SCORE.INTER>
-34.6142

>  <SCORE.INTER.CONST>
1

>  <SCORE.INTER.POLAR>
-4.30372

>  <SCORE.INTER.ROT>
3

>  <SCORE.INTER.SOLV>
11.2862

>  <SCORE.INTER.VDW>
-18.0925

>  <SCORE.INTER.norm>
-3.14675

>  <SCORE.INTRA>
0.00693487

>  <SCORE.INTRA.DIHEDRAL>
-0.093723

>  <SCORE.INTRA.DIHEDRAL.0>
3.92023

>  <SCORE.INTRA.POLAR>
0.114201

>  <SCORE.INTRA.POLAR.0>
-0.114201

>  <SCORE.INTRA.REPUL>
0

>  <SCORE.INTRA.REPUL.0>
0

>  <SCORE.INTRA.SOLV>
-0.00245617

>  <SCORE.INTRA.SOLV.lig_0>
-10.4883

>  <SCORE.INTRA.VDW>
-0.33326

>  <SCORE.INTRA.VDW.0>
-0.538962

>  <SCORE.INTRA.norm>
0.000630442

>  <SCORE.RESTR>
0

>  <SCORE.RESTR.CAVITY>
0

>  <SCORE.RESTR.norm>
0

>  <SCORE.SYSTEM>
-17.8005

>  <SCORE.SYSTEM.CONST>
0

>  <SCORE.SYSTEM.DIHEDRAL>
4.3092

>  <SCORE.SYSTEM.POLAR>
-3.0614

>  <SCORE.SYSTEM.SOLV>
-0.103667

>  <SCORE.SYSTEM.VDW>
-3.06418

>  <SCORE.SYSTEM.norm>
-1.61823

>  <SCORE.heavy>
11

>  <SCORE.norm>
-4.76435

$$$$
P61812363
 OpenBabel12072022113D
libRbt.so/2013.1/901 2013/11/27
 14 14  0  0  0  0  0  0  0  0999 V2000
  -24.5789   12.6220  -14.8893 C   0  0  0  0  0  0  0  0  0  0  0  0
  -25.5013   12.9401  -16.0596 C   0  0  1  0  0  0  0  0  0  0  0  0
  -26.8600   12.2476  -15.9162 C   0  0  0  0  0  0  0  0  0  0  0  0
  -27.8681   13.3172  -16.2967 C   0  0  0  0  0  0  0  0  0  0  0  0
  -27.2418   14.5284  -15.7623 N   0  0  0  0  0  0  0  0  0  0  0  0
  -25.8320   14.4336  -16.1706 C   0  0  0  0  0  0  0  0  0  0  0  0
  -27.8950   15.7428  -16.2919 C   0  0  0  0  0  0  0  0  0  0  0  0
  -29.0176   16.1686  -15.3373 C   0  0  0  0  0  0  0  0  0  0  0  0
  -28.8236   17.2023  -14.5719 N   0  0  0  0  0  0  0  0  0  0  0  0
  -29.9342   17.4145  -13.7379 O   0  0  0  0  0  0  0  0  0  0  0  0
  -30.1612   15.4024  -15.3310 N   0  0  0  0  0  0  0  0  0  0  0  0
  -29.9814   18.3880  -13.7070 H   0  0  0  0  0  0  0  0  0  0  0  0
  -30.7045   15.5240  -16.1823 H   0  0  0  0  0  0  0  0  0  0  0  0
  -29.9451   14.4359  -15.1123 H   0  0  0  0  0  0  0  0  0  0  0  0
  2  1  1  1  0  0  0
  2  3  1  0  0  0  0
  2  6  1  0  0  0  0
  3  4  1  0  0  0  0
  4  5  1  0  0  0  0
  5  6  1  0  0  0  0
  5  7  1  0  0  0  0
  7  8  1  0  0  0  0
  8  9  2  0  0  0  0
  8 11  1  0  0  0  0
  9 10  1  0  0  0  0
 10 12  1  0  0  0  0
 11 13  1  0  0  0  0
 11 14  1  0  0  0  0
M  END
>  <CHROM.0>
-60.50535650,37.23755926,-65.54819803,-44.91753259,-59.36712621,-61.58830363
-61.90785192,-172.69846507,-169.04222998

>  <CHROM.1>
91.65006186,105.32923621,-71.11804795,-143.03817361,-27.66512116,14.76854970
-15.45090478,-0.78899471,-0.18780131,0.46417650

>  <Name>
P61812363

>  <RI>
0

>  <Rbt.Current_Directory>
/home/fstefaniak/projects/zuza/docking/adenine/4TZX

>  <Rbt.Executable>
rbdock ($Id: //depot/dev/client3/rdock/2013.1/src/exe/rbdock.cxx#4 $)

>  <Rbt.Library>
libRbt.so (2013.1, Build901 2013/11/27)

>  <Rbt.Parameter_File>
/home/fstefaniak/progs/rDock//data/scripts/dock_solv.prm

>  <Rbt.Receptor>
4tzx.prm

>  <SCORE>
-51.9176

>  <SCORE.INTER>
-32.6085

>  <SCORE.INTER.CONST>
1

>  <SCORE.INTER.POLAR>
-4.77271

>  <SCORE.INTER.ROT>
3

>  <SCORE.INTER.SOLV>
9.70316

>  <SCORE.INTER.VDW>
-14.6644

>  <SCORE.INTER.norm>
-2.96441

>  <SCORE.INTRA>
0.352756

>  <SCORE.INTRA.DIHEDRAL>
0.352745

>  <SCORE.INTRA.DIHEDRAL.0>
3.92023

>  <SCORE.INTRA.POLAR>
0.114201

>  <SCORE.INTRA.POLAR.0>
-0.114201

>  <SCORE.INTRA.REPUL>
0

>  <SCORE.INTRA.REPUL.0>
0

>  <SCORE.INTRA.SOLV>
-0.138637

>  <SCORE.INTRA.SOLV.lig_0>
-10.4883

>  <SCORE.INTRA.VDW>
-0.142582

>  <SCORE.INTRA.VDW.0>
-0.538962

>  <SCORE.INTRA.norm>
0.0320687

>  <SCORE.RESTR>
0

>  <SCORE.RESTR.CAVITY>
0

>  <SCORE.RESTR.norm>
0

>  <SCORE.SYSTEM>
-19.6618

>  <SCORE.SYSTEM.CONST>
0

>  <SCORE.SYSTEM.DIHEDRAL>
6.31874

>  <SCORE.SYSTEM.POLAR>
-3.13172

>  <SCORE.SYSTEM.SOLV>
0.19236

>  <SCORE.SYSTEM.VDW>
-4.83919

>  <SCORE.SYSTEM.norm>
-1.78744

>  <SCORE.heavy>
11

>  <SCORE.norm>
-4.71978

$$$$
P62005643
 OpenBabel12072022113D
libRbt.so/2013.1/901 2013/11/27
 19 19  0  0  0  0  0  0  0  0999 V2000
  -29.8047   16.1449  -17.4403 C   0  0  0  0  0  0  0  0  0  0  0  0
  -29.9525   17.5559  -18.0114 C   0  0  0  0  0  0  0  0  0  0  0  0
  -31.0624   18.3421  -17.3153 C   0  0  1  0  0  0  0  0  0  0  0  0
  -31.0142   18.2999  -15.7895 C   0  0  0  0  0  0  0  0  0  0  0  0
  -30.7337   16.9024  -15.2312 C   0  0  0  0  0  0  0  0  0  0  0  0
  -29.5717   16.1755  -15.9249 C   0  0  2  0  0  0  0  0  0  0  0  0
  -28.2169   16.8221  -15.6284 C   0  0  0  0  0  0  0  0  0  0  0  0
  -28.0980   17.7723  -14.8598 O   0  0  0  0  0  0  0  0  0  0  0  0
  -27.1879   16.3473  -16.3967 N   0  0  0  0  0  0  0  0  0  0  0  0
  -25.8857   16.0412  -15.8299 C   0  0  0  0  0  0  0  0  0  0  0  0
  -24.8164   16.9900  -16.3841 C   0  0  0  0  0  0  0  0  0  0  0  0
  -24.1887   16.4313  -17.5892 N   0  0  0  0  0  0  0  0  0  0  0  0
  -30.9576   19.7668  -17.7404 N   0  3  0  0  0  0  0  0  0  0  0  0
  -30.1179   20.2064  -17.3335 H   0  0  0  0  0  0  0  0  0  0  0  0
  -30.8903   19.8601  -18.7616 H   0  0  0  0  0  0  0  0  0  0  0  0
  -31.7678   20.3167  -17.4273 H   0  0  0  0  0  0  0  0  0  0  0  0
  -27.3759   15.8957  -17.2883 H   0  0  0  0  0  0  0  0  0  0  0  0
  -23.7275   17.1850  -18.1030 H   0  0  0  0  0  0  0  0  0  0  0  0
  -24.9252   16.0979  -18.2150 H   0  0  0  0  0  0  0  0  0  0  0  0
  1  2  1  0  0  0  0
  1  6  1  0  0  0  0
  2  3  1  0  0  0  0
  3  4  1  0  0  0  0
  3 13  1  1  0  0  0
  4  5  1  0  0  0  0
  5  6  1  0  0  0  0
  6  7  1  6  0  0  0
  7  8  2  0  0  0  0
  7  9  1  0  0  0  0
  9 10  1  0  0  0  0
  9 17  1  0  0  0  0
 10 11  1  0  0  0  0
 11 12  1  0  0  0  0
 12 18  1  0  0  0  0
 12 19  1  0  0  0  0
 13 14  1  0  0  0  0
 13 15  1  0  0  0  0
 13 16  1  0  0  0  0
M  CHG  1  13   1
M  END
>  <CHROM.0>
-55.16503235,-59.03727018,-45.29259220,-41.94260646,-170.43616861,-174.73675039
-63.81451989,-54.46814071,-165.47742959

>  <CHROM.1>
-70.16586352,126.15793094,-136.69110055,-114.20183947,-91.05320054,161.29443000
-28.54216603,17.24322852,-16.50748823,-2.95405800,-0.23763318,2.12282315

>  <Name>
P62005643

>  <RI>
0

>  <Rbt.Current_Directory>
/home/fstefaniak/projects/zuza/docking/adenine/4TZX

>  <Rbt.Executable>
rbdock ($Id: //depot/dev/client3/rdock/2013.1/src/exe/rbdock.cxx#4 $)

>  <Rbt.Library>
libRbt.so (2013.1, Build901 2013/11/27)

>  <Rbt.Parameter_File>
/home/fstefaniak/progs/rDock//data/scripts/dock_solv.prm

>  <Rbt.Receptor>
4tzx.prm

>  <SCORE>
-54.231

>  <SCORE.INTER>
-36.3455

>  <SCORE.INTER.CONST>
1

>  <SCORE.INTER.POLAR>
-5.61256

>  <SCORE.INTER.ROT>
5

>  <SCORE.INTER.SOLV>
27.1526

>  <SCORE.INTER.VDW>
-21.506

>  <SCORE.INTER.norm>
-2.79581

>  <SCORE.INTRA>
2.28355

>  <SCORE.INTRA.DIHEDRAL>
3.50836

>  <SCORE.INTRA.DIHEDRAL.0>
2.87296

>  <SCORE.INTRA.POLAR>
0.0565066

>  <SCORE.INTRA.POLAR.0>
-0.0565066

>  <SCORE.INTRA.REPUL>
0

>  <SCORE.INTRA.REPUL.0>
0

>  <SCORE.INTRA.SOLV>
-0.287934

>  <SCORE.INTRA.SOLV.lig_0>
-33.7977

>  <SCORE.INTRA.VDW>
0.481215

>  <SCORE.INTRA.VDW.0>
-0.0611566

>  <SCORE.INTRA.norm>
0.175658

>  <SCORE.RESTR>
0

>  <SCORE.RESTR.CAVITY>
0

>  <SCORE.RESTR.norm>
0

>  <SCORE.SYSTEM>
-20.169

>  <SCORE.SYSTEM.CONST>
0

>  <SCORE.SYSTEM.DIHEDRAL>
6.27272

>  <SCORE.SYSTEM.POLAR>
-3.24038

>  <SCORE.SYSTEM.SOLV>
-0.0671603

>  <SCORE.SYSTEM.VDW>
-4.71328

>  <SCORE.SYSTEM.norm>
-1.55146

>  <SCORE.heavy>
13

>  <SCORE.norm>
-4.17162

$$$$
P62005643
 OpenBabel12072022113D
libRbt.so/2013.1/901 2013/11/27
 19 19  0  0  0  0  0  0  0  0999 V2000
  -29.7478   16.1699  -17.4040 C   0  0  0  0  0  0  0  0  0  0  0  0
  -29.8351   17.5956  -17.9502 C   0  0  0  0  0  0  0  0  0  0  0  0
  -31.0344   18.3537  -17.3832 C   0  0  1  0  0  0  0  0  0  0  0  0
  -31.1845   18.2679  -15.8658 C   0  0  0  0  0  0  0  0  0  0  0  0
  -30.9642   16.8569  -15.3146 C   0  0  0  0  0  0  0  0  0  0  0  0
  -29.7141   16.1584  -15.8708 C   0  0  2  0  0  0  0  0  0  0  0  0
  -28.4164   16.8056  -15.3827 C   0  0  0  0  0  0  0  0  0  0  0  0
  -28.4101   17.7724  -14.6257 O   0  0  0  0  0  0  0  0  0  0  0  0
  -27.2848   16.3091  -15.9722 N   0  0  0  0  0  0  0  0  0  0  0  0
  -27.1706   14.9131  -16.3581 C   0  0  0  0  0  0  0  0  0  0  0  0
  -25.6989   14.4895  -16.4320 C   0  0  0  0  0  0  0  0  0  0  0  0
  -25.1812   14.1466  -15.1006 N   0  0  0  0  0  0  0  0  0  0  0  0
  -30.8905   19.7907  -17.7514 N   0  3  0  0  0  0  0  0  0  0  0  0
  -30.7411   19.8922  -18.7668 H   0  0  0  0  0  0  0  0  0  0  0  0
  -31.7261   20.3366  -17.5066 H   0  0  0  0  0  0  0  0  0  0  0  0
  -30.0842   20.2235  -17.2830 H   0  0  0  0  0  0  0  0  0  0  0  0
  -26.6343   16.9315  -16.4453 H   0  0  0  0  0  0  0  0  0  0  0  0
  -24.1822   14.3605  -15.0677 H   0  0  0  0  0  0  0  0  0  0  0  0
  -25.2378   13.1329  -14.9804 H   0  0  0  0  0  0  0  0  0  0  0  0
  1  2  1  0  0  0  0
  1  6  1  0  0  0  0
  2  3  1  0  0  0  0
  3  4  1  0  0  0  0
  3 13  1  1  0  0  0
  4  5  1  0  0  0  0
  5  6  1  0  0  0  0
  6  7  1  6  0  0  0
  7  8  2  0  0  0  0
  7  9  1  0  0  0  0
  9 10  1  0  0  0  0
  9 17  1  0  0  0  0
 10 11  1  0  0  0  0
 11 12  1  0  0  0  0
 12 18  1  0  0  0  0
 12 19  1  0  0  0  0
 13 14  1  0  0  0  0
 13 15  1  0  0  0  0
 13 16  1  0  0  0  0
M  CHG  1  13   1
M  END
>  <CHROM.0>
-58.50642872,-61.33474965,60.61467146,-41.32225546,-58.66882364,-60.76362929
54.74270067,-57.39536619,-168.89079709

>  <CHROM.1>
52.64606601,122.82668136,-34.15807219,-156.31577795,82.37783369,-149.69875586
-28.84590518,16.76936658,-16.26403460,-2.94710980,-0.66493314,1.55990116

>  <Name>
P62005643

>  <RI>
0

>  <Rbt.Current_Directory>
/home/fstefaniak/projects/zuza/docking/adenine/4TZX

>  <Rbt.Executable>
rbdock ($Id: //depot/dev/client3/rdock/2013.1/src/exe/rbdock.cxx#4 $)

>  <Rbt.Library>
libRbt.so (2013.1, Build901 2013/11/27)

>  <Rbt.Parameter_File>
/home/fstefaniak/progs/rDock//data/scripts/dock_solv.prm

>  <Rbt.Receptor>
4tzx.prm

>  <SCORE>
-48.9638

>  <SCORE.INTER>
-32.3199

>  <SCORE.INTER.CONST>
1

>  <SCORE.INTER.POLAR>
-4.88141

>  <SCORE.INTER.ROT>
5

>  <SCORE.INTER.SOLV>
24.5359

>  <SCORE.INTER.VDW>
-20.3872

>  <SCORE.INTER.norm>
-2.48615

>  <SCORE.INTRA>
2.41283

>  <SCORE.INTRA.DIHEDRAL>
2.11597

>  <SCORE.INTRA.DIHEDRAL.0>
2.87296

>  <SCORE.INTRA.POLAR>
0.0565066

>  <SCORE.INTRA.POLAR.0>
-0.0565066

>  <SCORE.INTRA.REPUL>
0

>  <SCORE.INTRA.REPUL.0>
0

>  <SCORE.INTRA.SOLV>
-0.506744

>  <SCORE.INTRA.SOLV.lig_0>
-33.7977

>  <SCORE.INTRA.VDW>
1.4161

>  <SCORE.INTRA.VDW.0>
-0.0611566

>  <SCORE.INTRA.norm>
0.185602

>  <SCORE.RESTR>
0

>  <SCORE.RESTR.CAVITY>
0

>  <SCORE.RESTR.norm>
0

>  <SCORE.SYSTEM>
-19.0568

>  <SCORE.SYSTEM.CONST>
0

>  <SCORE.SYSTEM.DIHEDRAL>
4.39981

>  <SCORE.SYSTEM.POLAR>
-3.05926

>  <SCORE.SYSTEM.SOLV>
0.0887854

>  <SCORE.SYSTEM.VDW>
-4.00317

>  <SCORE.SYSTEM.norm>
-1.46591

>  <SCORE.heavy>
13

>  <SCORE.norm>
-3.76645

$$$$
P62005643
 OpenBabel12072022113D
libRbt.so/2013.1/901 2013/11/27
 19 19  0  0  0  0  0  0  0  0999 V2000
  -27.9448   12.9270  -16.5882 C   0  0  0  0  0  0  0  0  0  0  0  0
  -27.2724   12.4187  -15.3121 C   0  0  0  0  0  0  0  0  0  0  0  0
  -25.7504   12.3845  -15.4414 C   0  0  1  0  0  0  0  0  0  0  0  0
  -25.1277   13.6645  -15.9947 C   0  0  0  0  0  0  0  0  0  0  0  0
  -25.8876   14.2382  -17.1933 C   0  0  0  0  0  0  0  0  0  0  0  0
  -27.4091   14.3060  -16.9925 C   0  0  2  0  0  0  0  0  0  0  0  0
  -27.8149   15.3409  -15.9411 C   0  0  0  0  0  0  0  0  0  0  0  0
  -27.0147   16.1428  -15.4673 O   0  0  0  0  0  0  0  0  0  0  0  0
  -29.0951   15.1982  -15.4774 N   0  0  0  0  0  0  0  0  0  0  0  0
  -30.1713   16.0701  -15.9161 C   0  0  0  0  0  0  0  0  0  0  0  0
  -29.9719   17.4914  -15.3768 C   0  0  0  0  0  0  0  0  0  0  0  0
  -29.9533   17.5006  -13.9079 N   0  0  0  0  0  0  0  0  0  0  0  0
  -25.1758   12.1402  -14.0881 N   0  3  0  0  0  0  0  0  0  0  0  0
  -24.1826   12.4170  -14.0598 H   0  0  0  0  0  0  0  0  0  0  0  0
  -25.6656   12.6746  -13.3595 H   0  0  0  0  0  0  0  0  0  0  0  0
  -25.2193   11.1458  -13.8312 H   0  0  0  0  0  0  0  0  0  0  0  0
  -29.4044   14.3142  -15.0808 H   0  0  0  0  0  0  0  0  0  0  0  0
  -29.9936   18.4684  -13.5815 H   0  0  0  0  0  0  0  0  0  0  0  0
  -29.0452   17.1534  -13.5916 H   0  0  0  0  0  0  0  0  0  0  0  0
  1  2  1  0  0  0  0
  1  6  1  0  0  0  0
  2  3  1  0  0  0  0
  3  4  1  0  0  0  0
  3 13  1  1  0  0  0
  4  5  1  0  0  0  0
  5  6  1  0  0  0  0
  6  7  1  1  0  0  0
  7  8  2  0  0  0  0
  7  9  1  0  0  0  0
  9 10  1  0  0  0  0
  9 17  1  0  0  0  0
 10 11  1  0  0  0  0
 11 12  1  0  0  0  0
 12 18  1  0  0  0  0
 12 19  1  0  0  0  0
 13 14  1  0  0  0  0
 13 15  1  0  0  0  0
 13 16  1  0  0  0  0
M  CHG  1  13   1
M  END
>  <CHROM.0>
-58.50635897,-61.72599610,-69.36151467,-42.82358034,-177.42138444,-66.48133070
-166.49583867,-177.61520881,-167.55328875

>  <CHROM.1>
-161.06474873,132.12909380,-103.31078463,-68.90582933,-60.14453056,-169.62823473
-27.57516947,14.61581644,-15.60150336,0.18757257,0.79888985,-1.73260248

>  <Name>
P62005643

>  <RI>
0

>  <Rbt.Current_Directory>
/home/fstefaniak/projects/zuza/docking/adenine/4TZX

>  <Rbt.Executable>
rbdock ($Id: //depot/dev/client3/rdock/2013.1/src/exe/rbdock.cxx#4 $)

>  <Rbt.Library>
libRbt.so (2013.1, Build901 2013/11/27)

>  <Rbt.Parameter_File>
/home/fstefaniak/progs/rDock//data/scripts/dock_solv.prm

>  <Rbt.Receptor>
4tzx.prm

>  <SCORE>
-48.2447

>  <SCORE.INTER>
-28.7299

>  <SCORE.INTER.CONST>
1

>  <SCORE.INTER.POLAR>
-4.41855

>  <SCORE.INTER.ROT>
5

>  <SCORE.INTER.SOLV>
15.3674

>  <SCORE.INTER.VDW>
-16.4806

>  <SCORE.INTER.norm>
-2.20999

>  <SCORE.INTRA>
1.02173

>  <SCORE.INTRA.DIHEDRAL>
0.82964

>  <SCORE.INTRA.DIHEDRAL.0>
2.87296

>  <SCORE.INTRA.POLAR>
0.0565066

>  <SCORE.INTRA.POLAR.0>
-0.0565066

>  <SCORE.INTRA.REPUL>
0

>  <SCORE.INTRA.REPUL.0>
0

>  <SCORE.INTRA.SOLV>
0.325045

>  <SCORE.INTRA.SOLV.lig_0>
-33.7977

>  <SCORE.INTRA.VDW>
0.252261

>  <SCORE.INTRA.VDW.0>
-0.0611566

>  <SCORE.INTRA.norm>
0.0785943

>  <SCORE.RESTR>
0

>  <SCORE.RESTR.CAVITY>
0

>  <SCORE.RESTR.norm>
0

>  <SCORE.SYSTEM>
-20.5365

>  <SCORE.SYSTEM.CONST>
0

>  <SCORE.SYSTEM.DIHEDRAL>
5.58459

>  <SCORE.SYSTEM.POLAR>
-3.05256

>  <SCORE.SYSTEM.SOLV>
-0.162235

>  <SCORE.SYSTEM.VDW>
-5.32327

>  <SCORE.SYSTEM.norm>
-1.57973

>  <SCORE.heavy>
13

>  <SCORE.norm>
-3.71113

$$$$
P64104804
 OpenBabel12072022113D
libRbt.so/2013.1/901 2013/11/27
 11 11  0  0  0  0  0  0  0  0999 V2000
  -27.5138   15.2297  -16.3190 C   0  0  0  0  0  0  0  0  0  0  0  0
  -29.0187   15.2365  -16.5312 C   0  0  0  0  0  0  0  0  0  0  0  0
  -29.5725   16.5779  -16.5283 N   0  0  0  0  0  0  0  0  0  0  0  0
  -29.9590   17.2578  -17.7380 C   0  0  0  0  0  0  0  0  0  0  0  0
  -30.3041   18.6544  -17.2472 C   0  0  2  0  0  0  0  0  0  0  0  0
  -30.8736   18.4062  -15.8458 C   0  0  0  0  0  0  0  0  0  0  0  0
  -30.1600   17.1505  -15.4061 C   0  0  0  0  0  0  0  0  0  0  0  0
  -30.1563   16.7002  -14.2726 O   0  0  0  0  0  0  0  0  0  0  0  0
  -31.2598   19.3891  -18.1706 C   0  0  0  0  0  0  0  0  0  0  0  0
  -32.5317   18.7562  -18.1676 O   0  0  0  0  0  0  0  0  0  0  0  0
  -32.4434   17.8987  -18.6189 H   0  0  0  0  0  0  0  0  0  0  0  0
  1  2  1  0  0  0  0
  2  3  1  0  0  0  0
  3  4  1  0  0  0  0
  3  7  1  0  0  0  0
  4  5  1  0  0  0  0
  5  6  1  0  0  0  0
  5  9  1  6  0  0  0
  6  7  1  0  0  0  0
  7  8  2  0  0  0  0
  9 10  1  0  0  0  0
 10 11  1  0  0  0  0
M  END
>  <CHROM.0>
-59.70252771,-62.23447625,-63.30389477,-43.50654436,-58.19216160,-57.97405479
-65.56789382,-57.86743717,-169.10791848

>  <CHROM.1>
103.35238740,66.74330516,-69.72431382,-30.16459103,17.32923545,-16.63621353
-0.53014214,0.76985769,-1.41322065

>  <Name>
P64104804

>  <RI>
0

>  <Rbt.Current_Directory>
/home/fstefaniak/projects/zuza/docking/adenine/4TZX

>  <Rbt.Executable>
rbdock ($Id: //depot/dev/client3/rdock/2013.1/src/exe/rbdock.cxx#4 $)

>  <Rbt.Library>
libRbt.so (2013.1, Build901 2013/11/27)

>  <Rbt.Parameter_File>
/home/fstefaniak/progs/rDock//data/scripts/dock_solv.prm

>  <Rbt.Receptor>
4tzx.prm

>  <SCORE>
-46.5642

>  <SCORE.INTER>
-24.5838

>  <SCORE.INTER.CONST>
1

>  <SCORE.INTER.POLAR>
-2.97218

>  <SCORE.INTER.ROT>
2

>  <SCORE.INTER.SOLV>
10.4578

>  <SCORE.INTER.VDW>
-14.9012

>  <SCORE.INTER.norm>
-2.45838

>  <SCORE.INTRA>
-0.86487

>  <SCORE.INTRA.DIHEDRAL>
-1.90251

>  <SCORE.INTRA.DIHEDRAL.0>
3.70616

>  <SCORE.INTRA.POLAR>
0

>  <SCORE.INTRA.POLAR.0>
0

>  <SCORE.INTRA.REPUL>
0

>  <SCORE.INTRA.REPUL.0>
0

>  <SCORE.INTRA.SOLV>
0.373898

>  <SCORE.INTRA.SOLV.lig_0>
-11.2307

>  <SCORE.INTRA.VDW>
-0.100565

>  <SCORE.INTRA.VDW.0>
-0.031674

>  <SCORE.INTRA.norm>
-0.086487

>  <SCORE.RESTR>
0

>  <SCORE.RESTR.CAVITY>
0

>  <SCORE.RESTR.norm>
0

>  <SCORE.SYSTEM>
-21.1155

>  <SCORE.SYSTEM.CONST>
0

>  <SCORE.SYSTEM.DIHEDRAL>
4.14201

>  <SCORE.SYSTEM.POLAR>
-3.05487

>  <SCORE.SYSTEM.SOLV>
0.202172

>  <SCORE.SYSTEM.VDW>
-5.34215

>  <SCORE.SYSTEM.norm>
-2.11155

>  <SCORE.heavy>
10

>  <SCORE.norm>
-4.65642

$$$$
P64104804
 OpenBabel12072022113D
libRbt.so/2013.1/901 2013/11/27
 11 11  0  0  0  0  0  0  0  0999 V2000
  -27.4925   15.2755  -16.2932 C   0  0  0  0  0  0  0  0  0  0  0  0
  -29.0005   15.2676  -16.4825 C   0  0  0  0  0  0  0  0  0  0  0  0
  -29.5651   16.6044  -16.4881 N   0  0  0  0  0  0  0  0  0  0  0  0
  -29.9466   17.2778  -17.7031 C   0  0  0  0  0  0  0  0  0  0  0  0
  -30.3072   18.6729  -17.2192 C   0  0  2  0  0  0  0  0  0  0  0  0
  -30.8868   18.4239  -15.8221 C   0  0  0  0  0  0  0  0  0  0  0  0
  -30.1669   17.1754  -15.3726 C   0  0  0  0  0  0  0  0  0  0  0  0
  -30.1693   16.7282  -14.2379 O   0  0  0  0  0  0  0  0  0  0  0  0
  -31.2609   19.3973  -18.1529 C   0  0  0  0  0  0  0  0  0  0  0  0
  -32.5278   18.7545  -18.1584 O   0  0  0  0  0  0  0  0  0  0  0  0
  -32.4240   17.8862  -18.5851 H   0  0  0  0  0  0  0  0  0  0  0  0
  1  2  1  0  0  0  0
  2  3  1  0  0  0  0
  3  4  1  0  0  0  0
  3  7  1  0  0  0  0
  4  5  1  0  0  0  0
  5  6  1  0  0  0  0
  5  9  1  6  0  0  0
  6  7  1  0  0  0  0
  7  8  2  0  0  0  0
  9 10  1  0  0  0  0
 10 11  1  0  0  0  0
M  END
>  <CHROM.0>
-58.62197779,-59.12832778,-60.46401743,-42.34857780,-54.66625895,-60.17166160
-68.05076214,-61.43507912,-169.00210092

>  <CHROM.1>
101.87031121,66.77341539,-68.23575952,-30.16178030,17.35079918,-16.60681685
-0.53820442,0.75954692,-1.40651312

>  <Name>
P64104804

>  <RI>
0

>  <Rbt.Current_Directory>
/home/fstefaniak/projects/zuza/docking/adenine/4TZX

>  <Rbt.Executable>
rbdock ($Id: //depot/dev/client3/rdock/2013.1/src/exe/rbdock.cxx#4 $)

>  <Rbt.Library>
libRbt.so (2013.1, Build901 2013/11/27)

>  <Rbt.Parameter_File>
/home/fstefaniak/progs/rDock//data/scripts/dock_solv.prm

>  <Rbt.Receptor>
4tzx.prm

>  <SCORE>
-46.3302

>  <SCORE.INTER>
-24.4508

>  <SCORE.INTER.CONST>
1

>  <SCORE.INTER.POLAR>
-2.94798

>  <SCORE.INTER.ROT>
2

>  <SCORE.INTER.SOLV>
10.4411

>  <SCORE.INTER.VDW>
-14.8876

>  <SCORE.INTER.norm>
-2.44508

>  <SCORE.INTRA>
-0.911549

>  <SCORE.INTRA.DIHEDRAL>
-2.0394

>  <SCORE.INTRA.DIHEDRAL.0>
3.70616

>  <SCORE.INTRA.POLAR>
0

>  <SCORE.INTRA.POLAR.0>
0

>  <SCORE.INTRA.REPUL>
0

>  <SCORE.INTRA.REPUL.0>
0

>  <SCORE.INTRA.SOLV>
0.368713

>  <SCORE.INTRA.SOLV.lig_0>
-11.2307

>  <SCORE.INTRA.VDW>
-0.0762041

>  <SCORE.INTRA.VDW.0>
-0.031674

>  <SCORE.INTRA.norm>
-0.0911549

>  <SCORE.RESTR>
0

>  <SCORE.RESTR.CAVITY>
0

>  <SCORE.RESTR.norm>
0

>  <SCORE.SYSTEM>
-20.9679

>  <SCORE.SYSTEM.CONST>
0

>  <SCORE.SYSTEM.DIHEDRAL>
4.49112

>  <SCORE.SYSTEM.POLAR>
-3.08157

>  <SCORE.SYSTEM.SOLV>
0.200075

>  <SCORE.SYSTEM.VDW>
-5.27041

>  <SCORE.SYSTEM.norm>
-2.09679

>  <SCORE.heavy>
10

>  <SCORE.norm>
-4.63302

$$$$
P64104804
 OpenBabel12072022113D
libRbt.so/2013.1/901 2013/11/27
 11 11  0  0  0  0  0  0  0  0999 V2000
  -27.4671   15.3150  -16.3374 C   0  0  0  0  0  0  0  0  0  0  0  0
  -28.9774   15.2889  -16.5052 C   0  0  0  0  0  0  0  0  0  0  0  0
  -29.5578   16.6189  -16.5052 N   0  0  0  0  0  0  0  0  0  0  0  0
  -29.9325   17.2994  -17.7184 C   0  0  0  0  0  0  0  0  0  0  0  0
  -30.3156   18.6855  -17.2259 C   0  0  2  0  0  0  0  0  0  0  0  0
  -30.9091   18.4164  -15.8384 C   0  0  0  0  0  0  0  0  0  0  0  0
  -30.1798   17.1722  -15.3919 C   0  0  0  0  0  0  0  0  0  0  0  0
  -30.1907   16.7142  -14.2616 O   0  0  0  0  0  0  0  0  0  0  0  0
  -31.2663   19.4074  -18.1644 C   0  0  0  0  0  0  0  0  0  0  0  0
  -32.5333   18.7647  -18.1721 O   0  0  0  0  0  0  0  0  0  0  0  0
  -32.4271   17.8928  -18.5907 H   0  0  0  0  0  0  0  0  0  0  0  0
  1  2  1  0  0  0  0
  2  3  1  0  0  0  0
  3  4  1  0  0  0  0
  3  7  1  0  0  0  0
  4  5  1  0  0  0  0
  5  6  1  0  0  0  0
  5  9  1  6  0  0  0
  6  7  1  0  0  0  0
  7  8  2  0  0  0  0
  9 10  1  0  0  0  0
 10 11  1  0  0  0  0
M  END
>  <CHROM.0>
-56.04117491,-61.26514567,-57.57116605,-44.20543038,-58.21791915,-61.47871481
-66.59131675,-56.94433868,-168.53015995

>  <CHROM.1>
100.22535021,67.88190127,-67.86047830,-30.16235751,17.36131720,-16.62604160
-0.54933734,0.74375028,-1.38123788

>  <Name>
P64104804

>  <RI>
0

>  <Rbt.Current_Directory>
/home/fstefaniak/projects/zuza/docking/adenine/4TZX

>  <Rbt.Executable>
rbdock ($Id: //depot/dev/client3/rdock/2013.1/src/exe/rbdock.cxx#4 $)

>  <Rbt.Library>
libRbt.so (2013.1, Build901 2013/11/27)

>  <Rbt.Parameter_File>
/home/fstefaniak/progs/rDock//data/scripts/dock_solv.prm

>  <Rbt.Receptor>
4tzx.prm

>  <SCORE>
-46.2604

>  <SCORE.INTER>
-24.4785

>  <SCORE.INTER.CONST>
1

>  <SCORE.INTER.POLAR>
-2.975

>  <SCORE.INTER.ROT>
2

>  <SCORE.INTER.SOLV>
10.4487

>  <SCORE.INTER.VDW>
-14.8186

>  <SCORE.INTER.norm>
-2.44785

>  <SCORE.INTRA>
-0.889439

>  <SCORE.INTRA.DIHEDRAL>
-2.01598

>  <SCORE.INTRA.DIHEDRAL.0>
3.70616

>  <SCORE.INTRA.POLAR>
0

>  <SCORE.INTRA.POLAR.0>
0

>  <SCORE.INTRA.REPUL>
0

>  <SCORE.INTRA.REPUL.0>
0

>  <SCORE.INTRA.SOLV>
0.363196

>  <SCORE.INTRA.SOLV.lig_0>
-11.2307

>  <SCORE.INTRA.VDW>
-0.0630458

>  <SCORE.INTRA.VDW.0>
-0.031674

>  <SCORE.INTRA.norm>
-0.0889439

>  <SCORE.RESTR>
0

>  <SCORE.RESTR.CAVITY>
0

>  <SCORE.RESTR.norm>
0

>  <SCORE.SYSTEM>
-20.8924

>  <SCORE.SYSTEM.CONST>
0

>  <SCORE.SYSTEM.DIHEDRAL>
4.20141

>  <SCORE.SYSTEM.POLAR>
-3.07086

>  <SCORE.SYSTEM.SOLV>
0.207249

>  <SCORE.SYSTEM.VDW>
-5.16165

>  <SCORE.SYSTEM.norm>
-2.08924

>  <SCORE.heavy>
10

>  <SCORE.norm>
-4.62604

$$$$
P64169147
 OpenBabel12072022113D
libRbt.so/2013.1/901 2013/11/27
 19 19  0  0  0  0  0  0  0  0999 V2000
  -28.5772   13.9816  -16.6873 C   0  0  0  0  0  0  0  0  0  0  0  0
  -27.2620   13.2116  -16.7939 C   0  0  2  0  0  0  0  0  0  0  0  0
  -27.3137   12.0446  -15.7848 C   0  0  0  0  0  0  0  0  0  0  0  0
  -26.0443   11.1932  -15.7978 C   0  0  0  0  0  0  0  0  0  0  0  0
  -24.7738   12.0245  -15.5986 C   0  0  1  0  0  0  0  0  0  0  0  0
  -24.7543   13.1922  -16.5843 C   0  0  0  0  0  0  0  0  0  0  0  0
  -26.0093   14.0046  -16.5396 N   0  0  0  0  0  0  0  0  0  0  0  0
  -25.9236   15.3393  -16.2488 C   0  0  0  0  0  0  0  0  0  0  0  0
  -24.9822   15.8010  -15.4155 N   0  3  0  0  0  0  0  0  0  0  0  0
  -24.8659   16.7786  -15.1982 H   0  0  0  0  0  0  0  0  0  0  0  0
  -24.5208   15.1340  -14.7848 H   0  0  0  0  0  0  0  0  0  0  0  0
  -26.7443   16.2457  -16.7957 N   0  0  0  0  0  0  0  0  0  0  0  0
  -24.5985   12.5416  -14.1782 C   0  0  0  0  0  0  0  0  0  0  0  0
  -25.2581   13.4747  -13.7230 O   0  0  0  0  0  0  0  0  0  0  0  0
  -23.6377   11.9364  -13.4316 N   0  0  0  0  0  0  0  0  0  0  0  0
  -27.3322   16.0039  -17.5789 H   0  0  0  0  0  0  0  0  0  0  0  0
  -26.6953   17.2214  -16.5374 H   0  0  0  0  0  0  0  0  0  0  0  0
  -22.9712   11.2723  -13.8059 H   0  0  0  0  0  0  0  0  0  0  0  0
  -23.4556   12.2925  -12.4997 H   0  0  0  0  0  0  0  0  0  0  0  0
  2  3  1  0  0  0  0
  2  7  1  0  0  0  0
  2  1  1  1  0  0  0
  3  4  1  0  0  0  0
  4  5  1  0  0  0  0
  5  6  1  0  0  0  0
  5 13  1  1  0  0  0
  6  7  1  0  0  0  0
  7  8  1  0  0  0  0
  8  9  2  0  0  0  0
  8 12  1  0  0  0  0
  9 10  1  0  0  0  0
  9 11  1  0  0  0  0
 12 16  1  0  0  0  0
 12 17  1  0  0  0  0
 13 14  2  0  0  0  0
 13 15  1  0  0  0  0
 15 18  1  0  0  0  0
 15 19  1  0  0  0  0
M  CHG  1   9   1
M  END
>  <CHROM.0>
-58.76519656,-60.63838709,-62.91662205,-42.31704035,-176.42532147,-59.47201514
-64.75848553,-175.89584235,-168.90244868

>  <CHROM.1>
-74.77256367,-25.82818269,13.50530896,-15.62948797,2.32370026,-0.62678183
-0.17502031

>  <Name>
P64169147

>  <RI>
0

>  <Rbt.Current_Directory>
/home/fstefaniak/projects/zuza/docking/adenine/4TZX

>  <Rbt.Executable>
rbdock ($Id: //depot/dev/client3/rdock/2013.1/src/exe/rbdock.cxx#4 $)

>  <Rbt.Library>
libRbt.so (2013.1, Build901 2013/11/27)

>  <Rbt.Parameter_File>
/home/fstefaniak/progs/rDock//data/scripts/dock_solv.prm

>  <Rbt.Receptor>
4tzx.prm

>  <SCORE>
-45.2804

>  <SCORE.INTER>
-28.3613

>  <SCORE.INTER.CONST>
1

>  <SCORE.INTER.POLAR>
-4.3558

>  <SCORE.INTER.ROT>
1

>  <SCORE.INTER.SOLV>
17.0866

>  <SCORE.INTER.VDW>
-14.3504

>  <SCORE.INTER.norm>
-2.18164

>  <SCORE.INTRA>
3.82264

>  <SCORE.INTRA.DIHEDRAL>
2.95634

>  <SCORE.INTRA.DIHEDRAL.0>
0.558727

>  <SCORE.INTRA.POLAR>
1.00675

>  <SCORE.INTRA.POLAR.0>
-1.16588

>  <SCORE.INTRA.REPUL>
0

>  <SCORE.INTRA.REPUL.0>
0

>  <SCORE.INTRA.SOLV>
-0.218791

>  <SCORE.INTRA.SOLV.lig_0>
-30.4319

>  <SCORE.INTRA.VDW>
-0.969084

>  <SCORE.INTRA.VDW.0>
0.101403

>  <SCORE.INTRA.norm>
0.294049

>  <SCORE.RESTR>
0.408995

>  <SCORE.RESTR.CAVITY>
0.408995

>  <SCORE.RESTR.norm>
0.0314611

>  <SCORE.SYSTEM>
-21.1508

>  <SCORE.SYSTEM.CONST>
0

>  <SCORE.SYSTEM.DIHEDRAL>
4.3484

>  <SCORE.SYSTEM.POLAR>
-3.06882

>  <SCORE.SYSTEM.SOLV>
-0.114011

>  <SCORE.SYSTEM.VDW>
-5.28258

>  <SCORE.SYSTEM.norm>
-1.62698

>  <SCORE.heavy>
13

>  <SCORE.norm>
-3.48311

$$$$
P64169147
 OpenBabel12072022113D
libRbt.so/2013.1/901 2013/11/27
 19 19  0  0  0  0  0  0  0  0999 V2000
  -28.4747   13.8609  -16.7846 C   0  0  0  0  0  0  0  0  0  0  0  0
  -27.1541   13.0931  -16.8091 C   0  0  2  0  0  0  0  0  0  0  0  0
  -27.2710   11.9185  -15.8144 C   0  0  0  0  0  0  0  0  0  0  0  0
  -26.0021   11.0686  -15.7492 C   0  0  0  0  0  0  0  0  0  0  0  0
  -24.7491   11.8997  -15.4598 C   0  0  1  0  0  0  0  0  0  0  0  0
  -24.6659   13.0748  -16.4333 C   0  0  0  0  0  0  0  0  0  0  0  0
  -25.9223   13.8855  -16.4662 N   0  0  0  0  0  0  0  0  0  0  0  0
  -25.8583   15.2180  -16.1603 C   0  0  0  0  0  0  0  0  0  0  0  0
  -24.9752   15.6745  -15.2629 N   0  3  0  0  0  0  0  0  0  0  0  0
  -24.8751   16.6506  -15.0311 H   0  0  0  0  0  0  0  0  0  0  0  0
  -24.5557   15.0033  -14.6078 H   0  0  0  0  0  0  0  0  0  0  0  0
  -26.6422   16.1277  -16.7539 N   0  0  0  0  0  0  0  0  0  0  0  0
  -24.6695   12.4063  -14.0270 C   0  0  0  0  0  0  0  0  0  0  0  0
  -25.2210   13.4408  -13.6548 O   0  0  0  0  0  0  0  0  0  0  0  0
  -23.9185   11.6677  -13.1683 N   0  0  0  0  0  0  0  0  0  0  0  0
  -27.1763   15.8912  -17.5763 H   0  0  0  0  0  0  0  0  0  0  0  0
  -26.6120   17.1015  -16.4856 H   0  0  0  0  0  0  0  0  0  0  0  0
  -23.3268   10.8990  -13.4586 H   0  0  0  0  0  0  0  0  0  0  0  0
  -23.7979   12.0060  -12.2199 H   0  0  0  0  0  0  0  0  0  0  0  0
  2  3  1  0  0  0  0
  2  7  1  0  0  0  0
  2  1  1  1  0  0  0
  3  4  1  0  0  0  0
  4  5  1  0  0  0  0
  5  6  1  0  0  0  0
  5 13  1  1  0  0  0
  6  7  1  0  0  0  0
  7  8  1  0  0  0  0
  8  9  2  0  0  0  0
  8 12  1  0  0  0  0
  9 10  1  0  0  0  0
  9 11  1  0  0  0  0
 12 16  1  0  0  0  0
 12 17  1  0  0  0  0
 13 14  2  0  0  0  0
 13 15  1  0  0  0  0
 15 18  1  0  0  0  0
 15 19  1  0  0  0  0
M  CHG  1   9   1
M  END
>  <CHROM.0>
-57.01310731,-166.61874369,-63.83572803,-43.32601653,-176.69796972,-69.46538161
-67.25717524,-55.91849611,-169.00116409

>  <CHROM.1>
-84.74174726,-25.80372721,13.37688683,-15.54864085,2.28671582,-0.70348301
-0.17801009

>  <Name>
P64169147

>  <RI>
0

>  <Rbt.Current_Directory>
/home/fstefaniak/projects/zuza/docking/adenine/4TZX

>  <Rbt.Executable>
rbdock ($Id: //depot/dev/client3/rdock/2013.1/src/exe/rbdock.cxx#4 $)

>  <Rbt.Library>
libRbt.so (2013.1, Build901 2013/11/27)

>  <Rbt.Parameter_File>
/home/fstefaniak/progs/rDock//data/scripts/dock_solv.prm

>  <Rbt.Receptor>
4tzx.prm

>  <SCORE>
-44.8492

>  <SCORE.INTER>
-27.7799

>  <SCORE.INTER.CONST>
1

>  <SCORE.INTER.POLAR>
-4.27319

>  <SCORE.INTER.ROT>
1

>  <SCORE.INTER.SOLV>
17.0763

>  <SCORE.INTER.VDW>
-14.2347

>  <SCORE.INTER.norm>
-2.13691

>  <SCORE.INTRA>
3.30436

>  <SCORE.INTRA.DIHEDRAL>
2.28466

>  <SCORE.INTRA.DIHEDRAL.0>
0.558727

>  <SCORE.INTRA.POLAR>
0.885842

>  <SCORE.INTRA.POLAR.0>
-1.16588

>  <SCORE.INTRA.REPUL>
0

>  <SCORE.INTRA.REPUL.0>
0

>  <SCORE.INTRA.SOLV>
-0.129969

>  <SCORE.INTRA.SOLV.lig_0>
-30.4319

>  <SCORE.INTRA.VDW>
-0.784849

>  <SCORE.INTRA.VDW.0>
0.101403

>  <SCORE.INTRA.norm>
0.254182

>  <SCORE.RESTR>
0.455198

>  <SCORE.RESTR.CAVITY>
0.455198

>  <SCORE.RESTR.norm>
0.0350152

>  <SCORE.SYSTEM>
-20.8288

>  <SCORE.SYSTEM.CONST>
0

>  <SCORE.SYSTEM.DIHEDRAL>
5.60914

>  <SCORE.SYSTEM.POLAR>
-3.07693

>  <SCORE.SYSTEM.SOLV>
-0.0441379

>  <SCORE.SYSTEM.VDW>
-5.48447

>  <SCORE.SYSTEM.norm>
-1.60222

>  <SCORE.heavy>
13

>  <SCORE.norm>
-3.44994

$$$$
P64169147
 OpenBabel12072022113D
libRbt.so/2013.1/901 2013/11/27
 19 19  0  0  0  0  0  0  0  0999 V2000
  -28.5716   14.0166  -16.6941 C   0  0  0  0  0  0  0  0  0  0  0  0
  -27.2629   13.2357  -16.8015 C   0  0  2  0  0  0  0  0  0  0  0  0
  -27.3272   12.0641  -15.7985 C   0  0  0  0  0  0  0  0  0  0  0  0
  -26.0651   11.2017  -15.8129 C   0  0  0  0  0  0  0  0  0  0  0  0
  -24.7880   12.0209  -15.6066 C   0  0  1  0  0  0  0  0  0  0  0  0
  -24.7560   13.1933  -16.5863 C   0  0  0  0  0  0  0  0  0  0  0  0
  -26.0040   14.0164  -16.5404 N   0  0  0  0  0  0  0  0  0  0  0  0
  -25.9074   15.3488  -16.2425 C   0  0  0  0  0  0  0  0  0  0  0  0
  -24.9640   15.7981  -15.4048 N   0  3  0  0  0  0  0  0  0  0  0  0
  -24.8396   16.7736  -15.1823 H   0  0  0  0  0  0  0  0  0  0  0  0
  -24.5099   15.1239  -14.7764 H   0  0  0  0  0  0  0  0  0  0  0  0
  -26.7189   16.2651  -16.7868 N   0  0  0  0  0  0  0  0  0  0  0  0
  -24.6116   12.5292  -14.1831 C   0  0  0  0  0  0  0  0  0  0  0  0
  -25.2615   13.4682  -13.7259 O   0  0  0  0  0  0  0  0  0  0  0  0
  -23.6608   11.9091  -13.4360 N   0  0  0  0  0  0  0  0  0  0  0  0
  -27.3070   16.0324  -17.5726 H   0  0  0  0  0  0  0  0  0  0  0  0
  -26.6619   17.2390  -16.5234 H   0  0  0  0  0  0  0  0  0  0  0  0
  -23.0010   11.2388  -13.8110 H   0  0  0  0  0  0  0  0  0  0  0  0
  -23.4777   12.2587  -12.5018 H   0  0  0  0  0  0  0  0  0  0  0  0
  2  3  1  0  0  0  0
  2  7  1  0  0  0  0
  2  1  1  1  0  0  0
  3  4  1  0  0  0  0
  4  5  1  0  0  0  0
  5  6  1  0  0  0  0
  5 13  1  1  0  0  0
  6  7  1  0  0  0  0
  7  8  1  0  0  0  0
  8  9  2  0  0  0  0
  8 12  1  0  0  0  0
  9 10  1  0  0  0  0
  9 11  1  0  0  0  0
 12 16  1  0  0  0  0
 12 17  1  0  0  0  0
 13 14  2  0  0  0  0
 13 15  1  0  0  0  0
 15 18  1  0  0  0  0
 15 19  1  0  0  0  0
M  CHG  1   9   1
M  END
>  <CHROM.0>
-61.03308566,-62.04356037,-72.05542968,-43.35809011,-58.59092929,-61.55534051
-168.74768300,-172.12367926,-168.42067838

>  <CHROM.1>
-74.97534090,-25.82941107,13.51091527,-15.63231539,2.31216712,-0.62780571
-0.17645137

>  <Name>
P64169147

>  <RI>
0

>  <Rbt.Current_Directory>
/home/fstefaniak/projects/zuza/docking/adenine/4TZX

>  <Rbt.Executable>
rbdock ($Id: //depot/dev/client3/rdock/2013.1/src/exe/rbdock.cxx#4 $)

>  <Rbt.Library>
libRbt.so (2013.1, Build901 2013/11/27)

>  <Rbt.Parameter_File>
/home/fstefaniak/progs/rDock//data/scripts/dock_solv.prm

>  <Rbt.Receptor>
4tzx.prm

>  <SCORE>
-44.651

>  <SCORE.INTER>
-28.3471

>  <SCORE.INTER.CONST>
1

>  <SCORE.INTER.POLAR>
-4.34034

>  <SCORE.INTER.ROT>
1

>  <SCORE.INTER.SOLV>
17.1109

>  <SCORE.INTER.VDW>
-14.4006

>  <SCORE.INTER.norm>
-2.18054

>  <SCORE.INTRA>
3.81704

>  <SCORE.INTRA.DIHEDRAL>
2.94569

>  <SCORE.INTRA.DIHEDRAL.0>
0.558727

>  <SCORE.INTRA.POLAR>
1.00559

>  <SCORE.INTRA.POLAR.0>
-1.16588

>  <SCORE.INTRA.REPUL>
0

>  <SCORE.INTRA.REPUL.0>
0

>  <SCORE.INTRA.SOLV>
-0.216833

>  <SCORE.INTRA.SOLV.lig_0>
-30.4319

>  <SCORE.INTRA.VDW>
-0.966407

>  <SCORE.INTRA.VDW.0>
0.101403

>  <SCORE.INTRA.norm>
0.293618

>  <SCORE.RESTR>
0.41766

>  <SCORE.RESTR.CAVITY>
0.41766

>  <SCORE.RESTR.norm>
0.0321277

>  <SCORE.SYSTEM>
-20.5386

>  <SCORE.SYSTEM.CONST>
0

>  <SCORE.SYSTEM.DIHEDRAL>
5.48535

>  <SCORE.SYSTEM.POLAR>
-3.02445

>  <SCORE.SYSTEM.SOLV>
0.0214467

>  <SCORE.SYSTEM.VDW>
-5.44651

>  <SCORE.SYSTEM.norm>
-1.57989

>  <SCORE.heavy>
13

>  <SCORE.norm>
-3.43469

$$$$
P64169151
 OpenBabel12072022113D
libRbt.so/2013.1/901 2013/11/27
 19 19  0  0  0  0  0  0  0  0999 V2000
  -27.9825   17.0269  -15.5889 C   0  0  0  0  0  0  0  0  0  0  0  0
  -27.0779   16.2015  -16.4979 C   0  0  0  0  0  0  0  0  0  0  0  0
  -27.4538   14.7587  -16.4509 N   0  0  0  0  0  0  0  0  0  0  0  0
  -28.8917   14.5006  -16.7434 C   0  0  0  0  0  0  0  0  0  0  0  0
  -29.8111   15.3494  -15.8647 C   0  0  0  0  0  0  0  0  0  0  0  0
  -29.4731   16.8479  -15.9211 C   0  0  0  0  0  0  0  0  0  0  0  0
  -29.8835   17.4573  -17.2741 C   0  0  0  0  0  0  0  0  0  0  0  0
  -30.7554   18.6798  -17.1089 C   0  0  0  0  0  0  0  0  0  0  0  0
  -31.2545   18.9831  -16.0313 O   0  0  0  0  0  0  0  0  0  0  0  0
  -31.0177   19.3768  -18.2462 N   0  0  0  0  0  0  0  0  0  0  0  0
  -26.5435   13.7614  -16.2091 C   0  0  0  0  0  0  0  0  0  0  0  0
  -26.9037   12.4668  -16.1050 N   0  3  0  0  0  0  0  0  0  0  0  0
  -26.2167   11.7439  -15.9380 H   0  0  0  0  0  0  0  0  0  0  0  0
  -27.8611   12.1567  -16.1707 H   0  0  0  0  0  0  0  0  0  0  0  0
  -25.2265   14.0082  -16.0648 N   0  0  0  0  0  0  0  0  0  0  0  0
  -30.4894   19.2568  -19.0999 H   0  0  0  0  0  0  0  0  0  0  0  0
  -31.5594   20.2284  -18.1516 H   0  0  0  0  0  0  0  0  0  0  0  0
  -24.8274   14.9277  -16.1828 H   0  0  0  0  0  0  0  0  0  0  0  0
  -24.5696   13.2652  -15.8681 H   0  0  0  0  0  0  0  0  0  0  0  0
  1  2  1  0  0  0  0
  1  6  1  0  0  0  0
  2  3  1  0  0  0  0
  3  4  1  0  0  0  0
  3 11  1  0  0  0  0
  4  5  1  0  0  0  0
  5  6  1  0  0  0  0
  6  7  1  0  0  0  0
  7  8  1  0  0  0  0
  8  9  2  0  0  0  0
  8 10  1  0  0  0  0
 10 16  1  0  0  0  0
 10 17  1  0  0  0  0
 11 12  2  0  0  0  0
 11 15  1  0  0  0  0
 12 13  1  0  0  0  0
 12 14  1  0  0  0  0
 15 18  1  0  0  0  0
 15 19  1  0  0  0  0
M  CHG  1  12   1
M  END
>  <CHROM.0>
-59.21728240,-62.49007574,-53.52467410,-43.62958475,-173.74828543,-59.49559311
-67.22629333,59.45596883,-169.50895488

>  <CHROM.1>
-109.98539565,-12.01052209,-28.62576024,16.10607626,-16.47791749,-2.26857006
0.04782122,3.00388056

>  <Name>
P64169151

>  <RI>
0

>  <Rbt.Current_Directory>
/home/fstefaniak/projects/zuza/docking/adenine/4TZX

>  <Rbt.Executable>
rbdock ($Id: //depot/dev/client3/rdock/2013.1/src/exe/rbdock.cxx#4 $)

>  <Rbt.Library>
libRbt.so (2013.1, Build901 2013/11/27)

>  <Rbt.Parameter_File>
/home/fstefaniak/progs/rDock//data/scripts/dock_solv.prm

>  <Rbt.Receptor>
4tzx.prm

>  <SCORE>
-39.0843

>  <SCORE.INTER>
-21.2274

>  <SCORE.INTER.CONST>
1

>  <SCORE.INTER.POLAR>
-2.35074

>  <SCORE.INTER.ROT>
2

>  <SCORE.INTER.SOLV>
14.1354

>  <SCORE.INTER.VDW>
-15.961

>  <SCORE.INTER.norm>
-1.63288

>  <SCORE.INTRA>
2.19831

>  <SCORE.INTRA.DIHEDRAL>
4.07682

>  <SCORE.INTRA.DIHEDRAL.0>
1.72755

>  <SCORE.INTRA.POLAR>
0

>  <SCORE.INTRA.POLAR.0>
0

>  <SCORE.INTRA.REPUL>
0

>  <SCORE.INTRA.REPUL.0>
0

>  <SCORE.INTRA.SOLV>
-0.383961

>  <SCORE.INTRA.SOLV.lig_0>
-34.0893

>  <SCORE.INTRA.VDW>
0.351877

>  <SCORE.INTRA.VDW.0>
-0.723727

>  <SCORE.INTRA.norm>
0.169101

>  <SCORE.RESTR>
0

>  <SCORE.RESTR.CAVITY>
0

>  <SCORE.RESTR.norm>
0

>  <SCORE.SYSTEM>
-20.0552

>  <SCORE.SYSTEM.CONST>
0

>  <SCORE.SYSTEM.DIHEDRAL>
4.4554

>  <SCORE.SYSTEM.POLAR>
-3.06978

>  <SCORE.SYSTEM.SOLV>
-0.152144

>  <SCORE.SYSTEM.VDW>
-4.57194

>  <SCORE.SYSTEM.norm>
-1.54271

>  <SCORE.heavy>
13

>  <SCORE.norm>
-3.00649

$$$$
P64169151
 OpenBabel12072022113D
libRbt.so/2013.1/901 2013/11/27
 19 19  0  0  0  0  0  0  0  0999 V2000
  -28.3057   17.1111  -15.4192 C   0  0  0  0  0  0  0  0  0  0  0  0
  -27.3165   16.4191  -16.3513 C   0  0  0  0  0  0  0  0  0  0  0  0
  -27.5293   14.9427  -16.3481 N   0  0  0  0  0  0  0  0  0  0  0  0
  -28.9301   14.5350  -16.6504 C   0  0  0  0  0  0  0  0  0  0  0  0
  -29.9367   15.2494  -15.7479 C   0  0  0  0  0  0  0  0  0  0  0  0
  -29.7677   16.7773  -15.7589 C   0  0  0  0  0  0  0  0  0  0  0  0
  -30.2459   17.3775  -17.0935 C   0  0  0  0  0  0  0  0  0  0  0  0
  -30.9769   18.6855  -16.9021 C   0  0  0  0  0  0  0  0  0  0  0  0
  -31.5464   18.9662  -15.8537 O   0  0  0  0  0  0  0  0  0  0  0  0
  -31.0323   19.4965  -17.9918 N   0  0  0  0  0  0  0  0  0  0  0  0
  -26.5132   14.0462  -16.1350 C   0  0  0  0  0  0  0  0  0  0  0  0
  -26.7268   12.7169  -16.0704 N   0  3  0  0  0  0  0  0  0  0  0  0
  -25.9633   12.0704  -15.9240 H   0  0  0  0  0  0  0  0  0  0  0  0
  -27.6439   12.3042  -16.1467 H   0  0  0  0  0  0  0  0  0  0  0  0
  -25.2316   14.4336  -15.9814 N   0  0  0  0  0  0  0  0  0  0  0  0
  -30.4355   19.3760  -18.7990 H   0  0  0  0  0  0  0  0  0  0  0  0
  -31.4745   20.4010  -17.8726 H   0  0  0  0  0  0  0  0  0  0  0  0
  -24.9375   15.3950  -16.0712 H   0  0  0  0  0  0  0  0  0  0  0  0
  -24.4957   13.7629  -15.8062 H   0  0  0  0  0  0  0  0  0  0  0  0
  1  2  1  0  0  0  0
  1  6  1  0  0  0  0
  2  3  1  0  0  0  0
  3  4  1  0  0  0  0
  3 11  1  0  0  0  0
  4  5  1  0  0  0  0
  5  6  1  0  0  0  0
  6  7  1  0  0  0  0
  7  8  1  0  0  0  0
  8  9  2  0  0  0  0
  8 10  1  0  0  0  0
 10 16  1  0  0  0  0
 10 17  1  0  0  0  0
 11 12  2  0  0  0  0
 11 15  1  0  0  0  0
 12 13  1  0  0  0  0
 12 14  1  0  0  0  0
 15 18  1  0  0  0  0
 15 19  1  0  0  0  0
M  CHG  1  12   1
M  END
>  <CHROM.0>
-58.67121713,-170.17724964,-68.69704100,-42.94974608,-178.08528699,-57.63793650
-68.59242879,-61.67204349,-167.67750357

>  <CHROM.1>
-96.23878498,-25.31441613,-28.75715271,16.21377528,-16.33920832,-2.31793124
-0.01151374,2.97579878

>  <Name>
P64169151

>  <RI>
0

>  <Rbt.Current_Directory>
/home/fstefaniak/projects/zuza/docking/adenine/4TZX

>  <Rbt.Executable>
rbdock ($Id: //depot/dev/client3/rdock/2013.1/src/exe/rbdock.cxx#4 $)

>  <Rbt.Library>
libRbt.so (2013.1, Build901 2013/11/27)

>  <Rbt.Parameter_File>
/home/fstefaniak/progs/rDock//data/scripts/dock_solv.prm

>  <Rbt.Receptor>
4tzx.prm

>  <SCORE>
-38.7818

>  <SCORE.INTER>
-19.4548

>  <SCORE.INTER.CONST>
1

>  <SCORE.INTER.POLAR>
-2.16945

>  <SCORE.INTER.ROT>
2

>  <SCORE.INTER.SOLV>
14.922

>  <SCORE.INTER.VDW>
-15.6457

>  <SCORE.INTER.norm>
-1.49652

>  <SCORE.INTRA>
1.6413

>  <SCORE.INTRA.DIHEDRAL>
3.1254

>  <SCORE.INTRA.DIHEDRAL.0>
1.72755

>  <SCORE.INTRA.POLAR>
0

>  <SCORE.INTRA.POLAR.0>
0

>  <SCORE.INTRA.REPUL>
0

>  <SCORE.INTRA.REPUL.0>
0

>  <SCORE.INTRA.SOLV>
-0.343369

>  <SCORE.INTRA.SOLV.lig_0>
-34.0893

>  <SCORE.INTRA.VDW>
0.250285

>  <SCORE.INTRA.VDW.0>
-0.723727

>  <SCORE.INTRA.norm>
0.126254

>  <SCORE.RESTR>
0

>  <SCORE.RESTR.CAVITY>
0

>  <SCORE.RESTR.norm>
0

>  <SCORE.SYSTEM>
-20.9683

>  <SCORE.SYSTEM.CONST>
0

>  <SCORE.SYSTEM.DIHEDRAL>
5.28248

>  <SCORE.SYSTEM.POLAR>
-3.05771

>  <SCORE.SYSTEM.SOLV>
-0.0371598

>  <SCORE.SYSTEM.VDW>
-5.53494

>  <SCORE.SYSTEM.norm>
-1.61295

>  <SCORE.heavy>
13

>  <SCORE.norm>
-2.98321

$$$$
P64169151
 OpenBabel12072022113D
libRbt.so/2013.1/901 2013/11/27
 19 19  0  0  0  0  0  0  0  0999 V2000
  -28.3615   17.0960  -15.3886 C   0  0  0  0  0  0  0  0  0  0  0  0
  -27.3327   16.4448  -16.3071 C   0  0  0  0  0  0  0  0  0  0  0  0
  -27.5170   14.9649  -16.3440 N   0  0  0  0  0  0  0  0  0  0  0  0
  -28.9004   14.5384  -16.6962 C   0  0  0  0  0  0  0  0  0  0  0  0
  -29.9460   15.2125  -15.8073 C   0  0  0  0  0  0  0  0  0  0  0  0
  -29.8064   16.7431  -15.7783 C   0  0  0  0  0  0  0  0  0  0  0  0
  -30.2576   17.3654  -17.1121 C   0  0  0  0  0  0  0  0  0  0  0  0
  -30.9749   18.6802  -16.9152 C   0  0  0  0  0  0  0  0  0  0  0  0
  -31.4862   18.9894  -15.8450 O   0  0  0  0  0  0  0  0  0  0  0  0
  -31.0879   19.4632  -18.0208 N   0  0  0  0  0  0  0  0  0  0  0  0
  -26.4902   14.0828  -16.1220 C   0  0  0  0  0  0  0  0  0  0  0  0
  -26.6799   12.7486  -16.0941 N   0  3  0  0  0  0  0  0  0  0  0  0
  -25.9085   12.1132  -15.9405 H   0  0  0  0  0  0  0  0  0  0  0  0
  -27.5862   12.3208  -16.2066 H   0  0  0  0  0  0  0  0  0  0  0  0
  -25.2213   14.4903  -15.9223 N   0  0  0  0  0  0  0  0  0  0  0  0
  -30.5359   19.3202  -18.8557 H   0  0  0  0  0  0  0  0  0  0  0  0
  -31.5214   20.3718  -17.9011 H   0  0  0  0  0  0  0  0  0  0  0  0
  -24.9435   15.4589  -15.9814 H   0  0  0  0  0  0  0  0  0  0  0  0
  -24.4779   13.8295  -15.7411 H   0  0  0  0  0  0  0  0  0  0  0  0
  1  2  1  0  0  0  0
  1  6  1  0  0  0  0
  2  3  1  0  0  0  0
  3  4  1  0  0  0  0
  3 11  1  0  0  0  0
  4  5  1  0  0  0  0
  5  6  1  0  0  0  0
  6  7  1  0  0  0  0
  7  8  1  0  0  0  0
  8  9  2  0  0  0  0
  8 10  1  0  0  0  0
 10 16  1  0  0  0  0
 10 17  1  0  0  0  0
 11 12  2  0  0  0  0
 11 15  1  0  0  0  0
 12 13  1  0  0  0  0
 12 14  1  0  0  0  0
 15 18  1  0  0  0  0
 15 19  1  0  0  0  0
M  CHG  1  12   1
M  END
>  <CHROM.0>
-63.65455861,-176.23152543,-65.41715257,-43.08871553,-58.70403256,-59.89096248
-68.28510004,-177.85331118,-168.31610088

>  <CHROM.1>
-94.14926401,-20.78532019,-28.75694091,16.21918088,-16.34279198,-2.32549565
0.04484256,3.02136991

>  <Name>
P64169151

>  <RI>
0

>  <Rbt.Current_Directory>
/home/fstefaniak/projects/zuza/docking/adenine/4TZX

>  <Rbt.Executable>
rbdock ($Id: //depot/dev/client3/rdock/2013.1/src/exe/rbdock.cxx#4 $)

>  <Rbt.Library>
libRbt.so (2013.1, Build901 2013/11/27)

>  <Rbt.Parameter_File>
/home/fstefaniak/progs/rDock//data/scripts/dock_solv.prm

>  <Rbt.Receptor>
4tzx.prm

>  <SCORE>
-38.6304

>  <SCORE.INTER>
-19.1363

>  <SCORE.INTER.CONST>
1

>  <SCORE.INTER.POLAR>
-2.21092

>  <SCORE.INTER.ROT>
2

>  <SCORE.INTER.SOLV>
14.9441

>  <SCORE.INTER.VDW>
-15.3025

>  <SCORE.INTER.norm>
-1.47202

>  <SCORE.INTRA>
1.47585

>  <SCORE.INTRA.DIHEDRAL>
2.69571

>  <SCORE.INTRA.DIHEDRAL.0>
1.72755

>  <SCORE.INTRA.POLAR>
0

>  <SCORE.INTRA.POLAR.0>
0

>  <SCORE.INTRA.REPUL>
0

>  <SCORE.INTRA.REPUL.0>
0

>  <SCORE.INTRA.SOLV>
-0.338907

>  <SCORE.INTRA.SOLV.lig_0>
-34.0893

>  <SCORE.INTRA.VDW>
0.297449

>  <SCORE.INTRA.VDW.0>
-0.723727

>  <SCORE.INTRA.norm>
0.113527

>  <SCORE.RESTR>
0

>  <SCORE.RESTR.CAVITY>
0

>  <SCORE.RESTR.norm>
0

>  <SCORE.SYSTEM>
-20.9699

>  <SCORE.SYSTEM.CONST>
0

>  <SCORE.SYSTEM.DIHEDRAL>
4.6076

>  <SCORE.SYSTEM.POLAR>
-3.03279

>  <SCORE.SYSTEM.SOLV>
0.0159977

>  <SCORE.SYSTEM.VDW>
-5.41186

>  <SCORE.SYSTEM.norm>
-1.61307

>  <SCORE.heavy>
13

>  <SCORE.norm>
-2.97157

$$$$
P64253460
 OpenBabel12072022113D
libRbt.so/2013.1/901 2013/11/27
 17 17  0  0  0  0  0  0  0  0999 V2000
  -25.0685   16.7101  -16.8020 C   0  0  0  0  0  0  0  0  0  0  0  0
  -26.1699   15.8897  -16.1441 C   0  0  2  0  0  0  0  0  0  0  0  0
  -26.0835   14.3985  -16.5349 C   0  0  0  0  0  0  0  0  0  0  0  0
  -26.9315   13.8146  -17.2017 O   0  0  0  0  0  0  0  0  0  0  0  0
  -24.9642   13.7758  -16.0188 N   0  0  0  0  0  0  0  0  0  0  0  0
  -24.6192   12.3932  -16.3158 C   0  0  1  0  0  0  0  0  0  0  0  0
  -23.4639   11.8982  -15.4329 C   0  0  0  0  0  0  0  0  0  0  0  0
  -23.8701   11.7420  -13.9676 C   0  0  0  0  0  0  0  0  0  0  0  0
  -25.1101   10.8617  -13.8146 C   0  0  0  0  0  0  0  0  0  0  0  0
  -26.2721   11.3467  -14.6814 C   0  0  2  0  0  0  0  0  0  0  0  0
  -25.8553   11.4975  -16.1476 C   0  0  0  0  0  0  0  0  0  0  0  0
  -26.7358   12.6106  -14.1949 O   0  0  0  0  0  0  0  0  0  0  0  0
  -27.4918   16.4220  -16.5372 N   0  0  0  0  0  0  0  0  0  0  0  0
  -24.2149   14.3514  -15.6362 H   0  0  0  0  0  0  0  0  0  0  0  0
  -26.9651   12.4858  -13.2556 H   0  0  0  0  0  0  0  0  0  0  0  0
  -28.2086   15.9534  -15.9813 H   0  0  0  0  0  0  0  0  0  0  0  0
  -27.6753   16.1348  -17.5006 H   0  0  0  0  0  0  0  0  0  0  0  0
  2  3  1  0  0  0  0
  2 13  1  0  0  0  0
  2  1  1  6  0  0  0
  3  4  2  0  0  0  0
  3  5  1  0  0  0  0
  5 14  1  0  0  0  0
  6  5  1  1  0  0  0
  6  7  1  0  0  0  0
  6 11  1  0  0  0  0
  7  8  1  0  0  0  0
  8  9  1  0  0  0  0
  9 10  1  0  0  0  0
 10 11  1  0  0  0  0
 10 12  1  1  0  0  0
 12 15  1  0  0  0  0
 13 16  1  0  0  0  0
 13 17  1  0  0  0  0
M  END
>  <CHROM.0>
-179.06656881,-61.56459884,-71.38621150,-43.01513383,-56.79513959,-58.07638969
-168.18228617,-57.44535905,-168.57702058

>  <CHROM.1>
-114.10289588,-171.62976522,-170.65361914,-55.94716826,-25.62935132,13.37146541
-15.67115407,-1.86145861,-0.05785021,2.69043430

>  <Name>
P64253460

>  <RI>
0

>  <Rbt.Current_Directory>
/home/fstefaniak/projects/zuza/docking/adenine/4TZX

>  <Rbt.Executable>
rbdock ($Id: //depot/dev/client3/rdock/2013.1/src/exe/rbdock.cxx#4 $)

>  <Rbt.Library>
libRbt.so (2013.1, Build901 2013/11/27)

>  <Rbt.Parameter_File>
/home/fstefaniak/progs/rDock//data/scripts/dock_solv.prm

>  <Rbt.Receptor>
4tzx.prm

>  <SCORE>
-42.3403

>  <SCORE.INTER>
-28.3643

>  <SCORE.INTER.CONST>
1

>  <SCORE.INTER.POLAR>
-3.96837

>  <SCORE.INTER.ROT>
3

>  <SCORE.INTER.SOLV>
9.48987

>  <SCORE.INTER.VDW>
-14.4449

>  <SCORE.INTER.norm>
-2.18187

>  <SCORE.INTRA>
2.92385

>  <SCORE.INTRA.DIHEDRAL>
0.184841

>  <SCORE.INTRA.DIHEDRAL.0>
1.76922

>  <SCORE.INTRA.POLAR>
0.631666

>  <SCORE.INTRA.POLAR.0>
-0.631666

>  <SCORE.INTRA.REPUL>
0

>  <SCORE.INTRA.REPUL.0>
0

>  <SCORE.INTRA.SOLV>
0.308574

>  <SCORE.INTRA.SOLV.lig_0>
-15.3502

>  <SCORE.INTRA.VDW>
0.529479

>  <SCORE.INTRA.VDW.0>
-0.398074

>  <SCORE.INTRA.norm>
0.224912

>  <SCORE.RESTR>
0.450279

>  <SCORE.RESTR.CAVITY>
0.450279

>  <SCORE.RESTR.norm>
0.0346369

>  <SCORE.SYSTEM>
-17.35

>  <SCORE.SYSTEM.CONST>
0

>  <SCORE.SYSTEM.DIHEDRAL>
5.29379

>  <SCORE.SYSTEM.POLAR>
-2.47268

>  <SCORE.SYSTEM.SOLV>
0.168612

>  <SCORE.SYSTEM.VDW>
-5.14522

>  <SCORE.SYSTEM.norm>
-1.33462

>  <SCORE.heavy>
13

>  <SCORE.norm>
-3.25694

$$$$
P64253460
 OpenBabel12072022113D
libRbt.so/2013.1/901 2013/11/27
 17 17  0  0  0  0  0  0  0  0999 V2000
  -30.0519   17.6652  -15.3765 C   0  0  0  0  0  0  0  0  0  0  0  0
  -29.5028   16.2629  -15.1507 C   0  0  2  0  0  0  0  0  0  0  0  0
  -28.4872   15.8636  -16.2428 C   0  0  0  0  0  0  0  0  0  0  0  0
  -27.9789   16.6564  -17.0288 O   0  0  0  0  0  0  0  0  0  0  0  0
  -28.2384   14.5054  -16.2691 N   0  0  0  0  0  0  0  0  0  0  0  0
  -27.2567   13.8969  -17.1549 C   0  0  1  0  0  0  0  0  0  0  0  0
  -25.8990   14.6095  -17.0662 C   0  0  0  0  0  0  0  0  0  0  0  0
  -25.2003   14.3770  -15.7266 C   0  0  0  0  0  0  0  0  0  0  0  0
  -25.0748   12.8883  -15.4046 C   0  0  0  0  0  0  0  0  0  0  0  0
  -26.4200   12.1664  -15.4806 C   0  0  2  0  0  0  0  0  0  0  0  0
  -27.1103   12.4038  -16.8272 C   0  0  0  0  0  0  0  0  0  0  0  0
  -27.2725   12.6329  -14.4296 O   0  0  0  0  0  0  0  0  0  0  0  0
  -30.6138   15.2878  -15.1366 N   0  0  0  0  0  0  0  0  0  0  0  0
  -28.5442   13.9353  -15.4813 H   0  0  0  0  0  0  0  0  0  0  0  0
  -26.8510   12.3777  -13.5884 H   0  0  0  0  0  0  0  0  0  0  0  0
  -30.2204   14.3489  -15.0584 H   0  0  0  0  0  0  0  0  0  0  0  0
  -31.0658   15.3092  -16.0528 H   0  0  0  0  0  0  0  0  0  0  0  0
  2  3  1  0  0  0  0
  2 13  1  0  0  0  0
  2  1  1  6  0  0  0
  3  4  2  0  0  0  0
  3  5  1  0  0  0  0
  5 14  1  0  0  0  0
  6  5  1  1  0  0  0
  6  7  1  0  0  0  0
  6 11  1  0  0  0  0
  7  8  1  0  0  0  0
  8  9  1  0  0  0  0
  9 10  1  0  0  0  0
 10 11  1  0  0  0  0
 10 12  1  1  0  0  0
 12 15  1  0  0  0  0
 13 16  1  0  0  0  0
 13 17  1  0  0  0  0
M  END
>  <CHROM.0>
-60.41340342,-60.09525475,-62.78752733,-42.20722560,-64.11912721,59.19229657
-63.61187250,-58.41534702,-168.81348506

>  <CHROM.1>
13.91758858,175.57947395,50.35727160,-63.89671693,-27.65885593,14.55465233
-15.91564853,-2.47033157,-0.42995501,2.69585161

>  <Name>
P64253460

>  <RI>
0

>  <Rbt.Current_Directory>
/home/fstefaniak/projects/zuza/docking/adenine/4TZX

>  <Rbt.Executable>
rbdock ($Id: //depot/dev/client3/rdock/2013.1/src/exe/rbdock.cxx#4 $)

>  <Rbt.Library>
libRbt.so (2013.1, Build901 2013/11/27)

>  <Rbt.Parameter_File>
/home/fstefaniak/progs/rDock//data/scripts/dock_solv.prm

>  <Rbt.Receptor>
4tzx.prm

>  <SCORE>
-41.7125

>  <SCORE.INTER>
-24.6341

>  <SCORE.INTER.CONST>
1

>  <SCORE.INTER.POLAR>
-4.38275

>  <SCORE.INTER.ROT>
3

>  <SCORE.INTER.SOLV>
12.9501

>  <SCORE.INTER.VDW>
-11.7303

>  <SCORE.INTER.norm>
-1.89493

>  <SCORE.INTRA>
2.86903

>  <SCORE.INTRA.DIHEDRAL>
0.593734

>  <SCORE.INTRA.DIHEDRAL.0>
1.76922

>  <SCORE.INTRA.POLAR>
0.16209

>  <SCORE.INTRA.POLAR.0>
-0.631666

>  <SCORE.INTRA.REPUL>
0

>  <SCORE.INTRA.REPUL.0>
0

>  <SCORE.INTRA.SOLV>
0.422118

>  <SCORE.INTRA.SOLV.lig_0>
-15.3502

>  <SCORE.INTRA.VDW>
1.80999

>  <SCORE.INTRA.VDW.0>
-0.398074

>  <SCORE.INTRA.norm>
0.220694

>  <SCORE.RESTR>
0

>  <SCORE.RESTR.CAVITY>
0

>  <SCORE.RESTR.norm>
0

>  <SCORE.SYSTEM>
-19.9474

>  <SCORE.SYSTEM.CONST>
0

>  <SCORE.SYSTEM.DIHEDRAL>
4.27405

>  <SCORE.SYSTEM.POLAR>
-3.06463

>  <SCORE.SYSTEM.SOLV>
0.060412

>  <SCORE.SYSTEM.VDW>
-4.52766

>  <SCORE.SYSTEM.norm>
-1.53442

>  <SCORE.heavy>
13

>  <SCORE.norm>
-3.20865

$$$$
P64253460
 OpenBabel12072022113D
libRbt.so/2013.1/901 2013/11/27
 17 17  0  0  0  0  0  0  0  0999 V2000
  -30.1518   17.6630  -15.4357 C   0  0  0  0  0  0  0  0  0  0  0  0
  -29.5531   16.2856  -15.1845 C   0  0  2  0  0  0  0  0  0  0  0  0
  -28.5366   15.8954  -16.2791 C   0  0  0  0  0  0  0  0  0  0  0  0
  -28.0561   16.6884  -17.0822 O   0  0  0  0  0  0  0  0  0  0  0  0
  -28.2522   14.5441  -16.2858 N   0  0  0  0  0  0  0  0  0  0  0  0
  -27.2623   13.9473  -17.1705 C   0  0  1  0  0  0  0  0  0  0  0  0
  -25.9028   14.6522  -17.0525 C   0  0  0  0  0  0  0  0  0  0  0  0
  -25.2215   14.3925  -15.7090 C   0  0  0  0  0  0  0  0  0  0  0  0
  -25.1061   12.8977  -15.4124 C   0  0  0  0  0  0  0  0  0  0  0  0
  -26.4533   12.1832  -15.5178 C   0  0  2  0  0  0  0  0  0  0  0  0
  -27.1262   12.4478  -16.8681 C   0  0  0  0  0  0  0  0  0  0  0  0
  -27.3166   12.6345  -14.4689 O   0  0  0  0  0  0  0  0  0  0  0  0
  -30.6300   15.2742  -15.1350 N   0  0  0  0  0  0  0  0  0  0  0  0
  -28.5360   13.9789  -15.4863 H   0  0  0  0  0  0  0  0  0  0  0  0
  -26.9041   12.3664  -13.6272 H   0  0  0  0  0  0  0  0  0  0  0  0
  -30.2039   14.3505  -15.0483 H   0  0  0  0  0  0  0  0  0  0  0  0
  -31.0980   15.2649  -16.0434 H   0  0  0  0  0  0  0  0  0  0  0  0
  2  3  1  0  0  0  0
  2 13  1  0  0  0  0
  2  1  1  6  0  0  0
  3  4  2  0  0  0  0
  3  5  1  0  0  0  0
  5 14  1  0  0  0  0
  6  5  1  1  0  0  0
  6  7  1  0  0  0  0
  6 11  1  0  0  0  0
  7  8  1  0  0  0  0
  8  9  1  0  0  0  0
  9 10  1  0  0  0  0
 10 11  1  0  0  0  0
 10 12  1  1  0  0  0
 12 15  1  0  0  0  0
 13 16  1  0  0  0  0
 13 17  1  0  0  0  0
M  END
>  <CHROM.0>
-56.67624834,-65.08279357,-44.35070934,-43.16757937,54.09919958,-61.28066726
-65.80630657,-58.22769291,-168.65180061

>  <CHROM.1>
14.51752032,175.08930619,53.24821460,-63.60789196,-27.69477458,14.57592859
-15.93935768,-2.47572743,-0.42667065,2.68606068

>  <Name>
P64253460

>  <RI>
0

>  <Rbt.Current_Directory>
/home/fstefaniak/projects/zuza/docking/adenine/4TZX

>  <Rbt.Executable>
rbdock ($Id: //depot/dev/client3/rdock/2013.1/src/exe/rbdock.cxx#4 $)

>  <Rbt.Library>
libRbt.so (2013.1, Build901 2013/11/27)

>  <Rbt.Parameter_File>
/home/fstefaniak/progs/rDock//data/scripts/dock_solv.prm

>  <Rbt.Receptor>
4tzx.prm

>  <SCORE>
-41.699

>  <SCORE.INTER>
-24.6006

>  <SCORE.INTER.CONST>
1

>  <SCORE.INTER.POLAR>
-4.44507

>  <SCORE.INTER.ROT>
3

>  <SCORE.INTER.SOLV>
12.9821

>  <SCORE.INTER.VDW>
-11.5108

>  <SCORE.INTER.norm>
-1.89235

>  <SCORE.INTRA>
2.71818

>  <SCORE.INTRA.DIHEDRAL>
0.525245

>  <SCORE.INTRA.DIHEDRAL.0>
1.76922

>  <SCORE.INTRA.POLAR>
0.124799

>  <SCORE.INTRA.POLAR.0>
-0.631666

>  <SCORE.INTRA.REPUL>
0

>  <SCORE.INTRA.REPUL.0>
0

>  <SCORE.INTRA.SOLV>
0.415825

>  <SCORE.INTRA.SOLV.lig_0>
-15.3502

>  <SCORE.INTRA.VDW>
1.82333

>  <SCORE.INTRA.VDW.0>
-0.398074

>  <SCORE.INTRA.norm>
0.209091

>  <SCORE.RESTR>
0

>  <SCORE.RESTR.CAVITY>
0

>  <SCORE.RESTR.norm>
0

>  <SCORE.SYSTEM>
-19.8166

>  <SCORE.SYSTEM.CONST>
0

>  <SCORE.SYSTEM.DIHEDRAL>
5.5275

>  <SCORE.SYSTEM.POLAR>
-3.21203

>  <SCORE.SYSTEM.SOLV>
0.00293156

>  <SCORE.SYSTEM.VDW>
-4.34778

>  <SCORE.SYSTEM.norm>
-1.52435

>  <SCORE.heavy>
13

>  <SCORE.norm>
-3.20762

$$$$
P64682578
 OpenBabel12072022113D
libRbt.so/2013.1/901 2013/11/27
 15 16  0  0  0  0  0  0  0  0999 V2000
  -25.8133   14.5694  -16.5010 C   0  0  0  0  0  0  0  0  0  0  0  0
  -26.7936   15.7168  -16.3137 C   0  0  0  0  0  0  0  0  0  0  0  0
  -28.1393   15.0157  -16.1918 C   0  0  2  0  0  0  0  0  0  0  0  0
  -28.0175   13.9244  -17.1831 N   0  0  0  0  0  0  0  0  0  0  0  0
  -26.6577   13.4018  -16.9947 C   0  0  0  0  0  0  0  0  0  0  0  0
  -29.3573   15.9305  -16.4599 C   0  0  0  0  0  0  0  0  0  0  0  0
  -29.1908   17.3344  -16.0320 N   0  0  0  0  0  0  0  0  0  0  0  0
  -29.8822   18.2684  -16.9440 C   0  0  0  0  0  0  0  0  0  0  0  0
  -31.4128   18.1429  -16.9036 C   0  0  0  0  0  0  0  0  0  0  0  0
  -31.9432   18.0434  -15.5598 N   0  0  0  0  0  0  0  0  0  0  0  0
  -31.2041   17.5593  -14.5091 C   0  0  0  0  0  0  0  0  0  0  0  0
  -31.7660   17.2227  -13.4685 O   0  0  0  0  0  0  0  0  0  0  0  0
  -29.6773   17.5805  -14.6510 C   0  0  0  0  0  0  0  0  0  0  0  0
  -28.0745   14.3290  -18.1189 H   0  0  0  0  0  0  0  0  0  0  0  0
  -32.9444   17.9746  -15.4240 H   0  0  0  0  0  0  0  0  0  0  0  0
  1  2  1  0  0  0  0
  1  5  1  0  0  0  0
  2  3  1  0  0  0  0
  3  4  1  0  0  0  0
  3  6  1  6  0  0  0
  4  5  1  0  0  0  0
  4 14  1  0  0  0  0
  6  7  1  0  0  0  0
  7  8  1  0  0  0  0
  7 13  1  0  0  0  0
  8  9  1  0  0  0  0
  9 10  1  0  0  0  0
 10 11  1  0  0  0  0
 10 15  1  0  0  0  0
 11 12  2  0  0  0  0
 11 13  1  0  0  0  0
M  END
>  <CHROM.0>
-60.37026802,-172.12482706,-66.18439329,-44.22944658,-58.69382347,-61.61938640
-67.90344326,-175.52576625,-169.02477411

>  <CHROM.1>
-33.69786117,145.42705051,-29.24518271,16.36348151,-15.97445755,0.00619799
-0.71019184,2.00937281

>  <Name>
P64682578

>  <RI>
0

>  <Rbt.Current_Directory>
/home/fstefaniak/projects/zuza/docking/adenine/4TZX

>  <Rbt.Executable>
rbdock ($Id: //depot/dev/client3/rdock/2013.1/src/exe/rbdock.cxx#4 $)

>  <Rbt.Library>
libRbt.so (2013.1, Build901 2013/11/27)

>  <Rbt.Parameter_File>
/home/fstefaniak/progs/rDock//data/scripts/dock_solv.prm

>  <Rbt.Receptor>
4tzx.prm

>  <SCORE>
-45.2373

>  <SCORE.INTER>
-25.8473

>  <SCORE.INTER.CONST>
1

>  <SCORE.INTER.POLAR>
-1.99808

>  <SCORE.INTER.ROT>
2

>  <SCORE.INTER.SOLV>
14.2792

>  <SCORE.INTER.VDW>
-20.2644

>  <SCORE.INTER.norm>
-1.98826

>  <SCORE.INTRA>
1.58113

>  <SCORE.INTRA.DIHEDRAL>
3.36138

>  <SCORE.INTRA.DIHEDRAL.0>
0.160472

>  <SCORE.INTRA.POLAR>
0

>  <SCORE.INTRA.POLAR.0>
0

>  <SCORE.INTRA.REPUL>
0

>  <SCORE.INTRA.REPUL.0>
0

>  <SCORE.INTRA.SOLV>
-0.00616522

>  <SCORE.INTRA.SOLV.lig_0>
-16.4161

>  <SCORE.INTRA.VDW>
-0.0964729

>  <SCORE.INTRA.VDW.0>
-0.460237

>  <SCORE.INTRA.norm>
0.121626

>  <SCORE.RESTR>
0

>  <SCORE.RESTR.CAVITY>
0

>  <SCORE.RESTR.norm>
0

>  <SCORE.SYSTEM>
-20.9711

>  <SCORE.SYSTEM.CONST>
0

>  <SCORE.SYSTEM.DIHEDRAL>
4.64192

>  <SCORE.SYSTEM.POLAR>
-3.01943

>  <SCORE.SYSTEM.SOLV>
0.013987

>  <SCORE.SYSTEM.VDW>
-5.46792

>  <SCORE.SYSTEM.norm>
-1.61316

>  <SCORE.heavy>
13

>  <SCORE.norm>
-3.47979

$$$$
P64682578
 OpenBabel12072022113D
libRbt.so/2013.1/901 2013/11/27
 15 16  0  0  0  0  0  0  0  0999 V2000
  -25.8669   14.5421  -16.4161 C   0  0  0  0  0  0  0  0  0  0  0  0
  -26.8327   15.7098  -16.2885 C   0  0  0  0  0  0  0  0  0  0  0  0
  -28.1908   15.0333  -16.1649 C   0  0  2  0  0  0  0  0  0  0  0  0
  -28.0686   13.9045  -17.1131 N   0  0  0  0  0  0  0  0  0  0  0  0
  -26.7203   13.3694  -16.8815 C   0  0  0  0  0  0  0  0  0  0  0  0
  -29.3900   15.9553  -16.4881 C   0  0  0  0  0  0  0  0  0  0  0  0
  -29.2357   17.3577  -16.0510 N   0  0  0  0  0  0  0  0  0  0  0  0
  -29.9519   18.2898  -16.9457 C   0  0  0  0  0  0  0  0  0  0  0  0
  -31.4801   18.1440  -16.8851 C   0  0  0  0  0  0  0  0  0  0  0  0
  -31.9902   18.0268  -15.5349 N   0  0  0  0  0  0  0  0  0  0  0  0
  -31.2303   17.5441  -14.4985 C   0  0  0  0  0  0  0  0  0  0  0  0
  -31.7731   17.1919  -13.4530 O   0  0  0  0  0  0  0  0  0  0  0  0
  -29.7060   17.5865  -14.6614 C   0  0  0  0  0  0  0  0  0  0  0  0
  -28.1032   14.2750  -18.0640 H   0  0  0  0  0  0  0  0  0  0  0  0
  -32.9885   17.9439  -15.3858 H   0  0  0  0  0  0  0  0  0  0  0  0
  1  2  1  0  0  0  0
  1  5  1  0  0  0  0
  2  3  1  0  0  0  0
  3  4  1  0  0  0  0
  3  6  1  6  0  0  0
  4  5  1  0  0  0  0
  4 14  1  0  0  0  0
  6  7  1  0  0  0  0
  7  8  1  0  0  0  0
  7 13  1  0  0  0  0
  8  9  1  0  0  0  0
  9 10  1  0  0  0  0
 10 11  1  0  0  0  0
 10 15  1  0  0  0  0
 11 12  2  0  0  0  0
 11 13  1  0  0  0  0
M  END
>  <CHROM.0>
-59.33640877,-171.89456943,-63.47994904,-44.04596379,-56.89579885,-176.71503891
-65.19271393,-58.10123080,-168.75151917

>  <CHROM.1>
-36.48455482,149.06775479,-29.28959253,16.35855353,-15.94876944,0.03572660
-0.70883590,2.03258065

>  <Name>
P64682578

>  <RI>
0

>  <Rbt.Current_Directory>
/home/fstefaniak/projects/zuza/docking/adenine/4TZX

>  <Rbt.Executable>
rbdock ($Id: //depot/dev/client3/rdock/2013.1/src/exe/rbdock.cxx#4 $)

>  <Rbt.Library>
libRbt.so (2013.1, Build901 2013/11/27)

>  <Rbt.Parameter_File>
/home/fstefaniak/progs/rDock//data/scripts/dock_solv.prm

>  <Rbt.Receptor>
4tzx.prm

>  <SCORE>
-44.9071

>  <SCORE.INTER>
-25.4376

>  <SCORE.INTER.CONST>
1

>  <SCORE.INTER.POLAR>
-1.96953

>  <SCORE.INTER.ROT>
2

>  <SCORE.INTER.SOLV>
14.254

>  <SCORE.INTER.VDW>
-20.078

>  <SCORE.INTER.norm>
-1.95674

>  <SCORE.INTRA>
1.27035

>  <SCORE.INTRA.DIHEDRAL>
2.76894

>  <SCORE.INTRA.DIHEDRAL.0>
0.160472

>  <SCORE.INTRA.POLAR>
0

>  <SCORE.INTRA.POLAR.0>
0

>  <SCORE.INTRA.REPUL>
0

>  <SCORE.INTRA.REPUL.0>
0

>  <SCORE.INTRA.SOLV>
-0.013553

>  <SCORE.INTRA.SOLV.lig_0>
-16.4161

>  <SCORE.INTRA.VDW>
-0.107338

>  <SCORE.INTRA.VDW.0>
-0.460237

>  <SCORE.INTRA.norm>
0.0977195

>  <SCORE.RESTR>
0

>  <SCORE.RESTR.CAVITY>
0

>  <SCORE.RESTR.norm>
0

>  <SCORE.SYSTEM>
-20.7398

>  <SCORE.SYSTEM.CONST>
0

>  <SCORE.SYSTEM.DIHEDRAL>
4.43379

>  <SCORE.SYSTEM.POLAR>
-3.03959

>  <SCORE.SYSTEM.SOLV>
0.0473534

>  <SCORE.SYSTEM.VDW>
-5.18828

>  <SCORE.SYSTEM.norm>
-1.59537

>  <SCORE.heavy>
13

>  <SCORE.norm>
-3.45439

$$$$
P64682578
 OpenBabel12072022113D
libRbt.so/2013.1/901 2013/11/27
 15 16  0  0  0  0  0  0  0  0999 V2000
  -25.6890   14.5765  -16.4546 C   0  0  0  0  0  0  0  0  0  0  0  0
  -26.6352   15.7663  -16.4138 C   0  0  0  0  0  0  0  0  0  0  0  0
  -27.9897   15.1311  -16.1319 C   0  0  2  0  0  0  0  0  0  0  0  0
  -27.9333   13.8950  -16.9426 N   0  0  0  0  0  0  0  0  0  0  0  0
  -26.5786   13.3702  -16.7256 C   0  0  0  0  0  0  0  0  0  0  0  0
  -29.1976   16.0266  -16.4949 C   0  0  0  0  0  0  0  0  0  0  0  0
  -29.1112   17.4192  -16.0100 N   0  0  0  0  0  0  0  0  0  0  0  0
  -29.7860   18.3592  -16.9281 C   0  0  0  0  0  0  0  0  0  0  0  0
  -31.3103   18.1751  -16.9813 C   0  0  0  0  0  0  0  0  0  0  0  0
  -31.9119   18.0068  -15.6749 N   0  0  0  0  0  0  0  0  0  0  0  0
  -31.2152   17.5127  -14.6001 C   0  0  0  0  0  0  0  0  0  0  0  0
  -31.8216   17.1175  -13.6062 O   0  0  0  0  0  0  0  0  0  0  0  0
  -29.6848   17.5963  -14.6521 C   0  0  0  0  0  0  0  0  0  0  0  0
  -28.0204   14.1493  -17.9276 H   0  0  0  0  0  0  0  0  0  0  0  0
  -32.9157   17.8957  -15.6001 H   0  0  0  0  0  0  0  0  0  0  0  0
  1  2  1  0  0  0  0
  1  5  1  0  0  0  0
  2  3  1  0  0  0  0
  3  4  1  0  0  0  0
  3  6  1  6  0  0  0
  4  5  1  0  0  0  0
  4 14  1  0  0  0  0
  6  7  1  0  0  0  0
  7  8  1  0  0  0  0
  7 13  1  0  0  0  0
  8  9  1  0  0  0  0
  9 10  1  0  0  0  0
 10 11  1  0  0  0  0
 10 15  1  0  0  0  0
 11 12  2  0  0  0  0
 11 13  1  0  0  0  0
M  END
>  <CHROM.0>
-64.99557418,-69.49638716,-64.21824832,-43.26037819,-169.63295333,-51.64752969
-68.00039940,-64.33271968,-169.18803120

>  <CHROM.1>
-47.53376123,148.08427969,-29.17020086,16.37934624,-15.96784884,-0.21590773
0.65354188,-0.84969118

>  <Name>
P64682578

>  <RI>
0

>  <Rbt.Current_Directory>
/home/fstefaniak/projects/zuza/docking/adenine/4TZX

>  <Rbt.Executable>
rbdock ($Id: //depot/dev/client3/rdock/2013.1/src/exe/rbdock.cxx#4 $)

>  <Rbt.Library>
libRbt.so (2013.1, Build901 2013/11/27)

>  <Rbt.Parameter_File>
/home/fstefaniak/progs/rDock//data/scripts/dock_solv.prm

>  <Rbt.Receptor>
4tzx.prm

>  <SCORE>
-44.2081

>  <SCORE.INTER>
-23.9044

>  <SCORE.INTER.CONST>
1

>  <SCORE.INTER.POLAR>
-1.86766

>  <SCORE.INTER.ROT>
2

>  <SCORE.INTER.SOLV>
14.0585

>  <SCORE.INTER.VDW>
-19.3302

>  <SCORE.INTER.norm>
-1.8388

>  <SCORE.INTRA>
0.590492

>  <SCORE.INTRA.DIHEDRAL>
1.63738

>  <SCORE.INTRA.DIHEDRAL.0>
0.160472

>  <SCORE.INTRA.POLAR>
0

>  <SCORE.INTRA.POLAR.0>
0

>  <SCORE.INTRA.REPUL>
0

>  <SCORE.INTRA.REPUL.0>
0

>  <SCORE.INTRA.SOLV>
-0.0537072

>  <SCORE.INTRA.SOLV.lig_0>
-16.4161

>  <SCORE.INTRA.VDW>
-0.201344

>  <SCORE.INTRA.VDW.0>
-0.460237

>  <SCORE.INTRA.norm>
0.0454224

>  <SCORE.RESTR>
0

>  <SCORE.RESTR.CAVITY>
0

>  <SCORE.RESTR.norm>
0

>  <SCORE.SYSTEM>
-20.8942

>  <SCORE.SYSTEM.CONST>
0

>  <SCORE.SYSTEM.DIHEDRAL>
5.68335

>  <SCORE.SYSTEM.POLAR>
-3.05454

>  <SCORE.SYSTEM.SOLV>
-0.0109788

>  <SCORE.SYSTEM.VDW>
-5.63844

>  <SCORE.SYSTEM.norm>
-1.60724

>  <SCORE.heavy>
13

>  <SCORE.norm>
-3.40062

$$$$
P66010263
 OpenBabel12072022113D
libRbt.so/2013.1/901 2013/11/27
 12 12  0  0  0  0  0  0  0  0999 V2000
  -30.5563   18.6603  -18.8482 C   0  0  0  0  0  0  0  0  0  0  0  0
  -30.6055   18.7476  -17.3341 C   0  0  2  0  0  0  0  0  0  0  0  0
  -30.2427   17.4592  -16.6493 C   0  0  0  0  0  0  0  0  0  0  0  0
  -30.6693   17.0661  -15.4398 N   0  0  0  0  0  0  0  0  0  0  0  0
  -31.2940   17.5755  -14.8227 H   0  0  0  0  0  0  0  0  0  0  0  0
  -30.1346   15.8513  -15.0935 N   0  0  0  0  0  0  0  0  0  0  0  0
  -29.4073   15.5583  -16.1090 C   0  0  0  0  0  0  0  0  0  0  0  0
  -29.4369   16.4983  -17.0810 N   0  3  0  0  0  0  0  0  0  0  0  0
  -28.9053   16.3898  -17.9328 H   0  0  0  0  0  0  0  0  0  0  0  0
  -28.4608   14.1886  -16.3056 S   0  5  0  0  0  0  0  0  0  0  0  0
  -31.9228   19.1565  -16.9481 O   0  0  0  0  0  0  0  0  0  0  0  0
  -32.0718   20.0524  -17.3048 H   0  0  0  0  0  0  0  0  0  0  0  0
  2  3  1  0  0  0  0
  2 11  1  0  0  0  0
  2  1  1  6  0  0  0
  3  4  1  0  0  0  0
  3  8  2  0  0  0  0
  4  5  1  0  0  0  0
  4  6  1  0  0  0  0
  6  7  2  0  0  0  0
  7  8  1  0  0  0  0
  7 10  1  0  0  0  0
  8  9  1  0  0  0  0
 11 12  1  0  0  0  0
M  CHG  2   8   1  10  -1
M  END
>  <CHROM.0>
-62.92754436,-60.27898426,-63.72232401,-43.42542448,-175.55804054,-58.10272364
-66.15713211,-61.55796341,-169.20922496

>  <CHROM.1>
-152.59290709,-63.54295436,-29.99395959,16.73230442,-16.62639603,-2.38968312
-0.87664634,2.14122212

>  <Name>
P66010263

>  <RI>
0

>  <Rbt.Current_Directory>
/home/fstefaniak/projects/zuza/docking/adenine/4TZX

>  <Rbt.Executable>
rbdock ($Id: //depot/dev/client3/rdock/2013.1/src/exe/rbdock.cxx#4 $)

>  <Rbt.Library>
libRbt.so (2013.1, Build901 2013/11/27)

>  <Rbt.Parameter_File>
/home/fstefaniak/progs/rDock//data/scripts/dock_solv.prm

>  <Rbt.Receptor>
4tzx.prm

>  <SCORE>
-55.4063

>  <SCORE.INTER>
-33.3647

>  <SCORE.INTER.CONST>
1

>  <SCORE.INTER.POLAR>
-3.87724

>  <SCORE.INTER.ROT>
1

>  <SCORE.INTER.SOLV>
16.0495

>  <SCORE.INTER.VDW>
-18.9355

>  <SCORE.INTER.norm>
-3.70719

>  <SCORE.INTRA>
-0.779782

>  <SCORE.INTRA.DIHEDRAL>
-3.10046

>  <SCORE.INTRA.DIHEDRAL.0>
4.25128

>  <SCORE.INTRA.POLAR>
0

>  <SCORE.INTRA.POLAR.0>
0

>  <SCORE.INTRA.REPUL>
0

>  <SCORE.INTRA.REPUL.0>
0

>  <SCORE.INTRA.SOLV>
-0.0650873

>  <SCORE.INTRA.SOLV.lig_0>
-29.3101

>  <SCORE.INTRA.VDW>
0.802993

>  <SCORE.INTRA.VDW.0>
-0.757086

>  <SCORE.INTRA.norm>
-0.0866425

>  <SCORE.RESTR>
0

>  <SCORE.RESTR.CAVITY>
0

>  <SCORE.RESTR.norm>
0

>  <SCORE.SYSTEM>
-21.2618

>  <SCORE.SYSTEM.CONST>
0

>  <SCORE.SYSTEM.DIHEDRAL>
4.26578

>  <SCORE.SYSTEM.POLAR>
-3.03165

>  <SCORE.SYSTEM.SOLV>
0.00280958

>  <SCORE.SYSTEM.VDW>
-5.49188

>  <SCORE.SYSTEM.norm>
-2.36242

>  <SCORE.heavy>
9

>  <SCORE.norm>
-6.15626

$$$$
P66010263
 OpenBabel12072022113D
libRbt.so/2013.1/901 2013/11/27
 12 12  0  0  0  0  0  0  0  0999 V2000
  -30.5568   18.6978  -18.8590 C   0  0  0  0  0  0  0  0  0  0  0  0
  -30.5989   18.7775  -17.3443 C   0  0  2  0  0  0  0  0  0  0  0  0
  -30.2087   17.4929  -16.6674 C   0  0  0  0  0  0  0  0  0  0  0  0
  -30.5253   17.1392  -15.4127 N   0  0  0  0  0  0  0  0  0  0  0  0
  -31.0708   17.6813  -14.7499 H   0  0  0  0  0  0  0  0  0  0  0  0
  -29.9953   15.9157  -15.0913 N   0  0  0  0  0  0  0  0  0  0  0  0
  -29.3807   15.5783  -16.1657 C   0  0  0  0  0  0  0  0  0  0  0  0
  -29.4782   16.4979  -17.1526 N   0  3  0  0  0  0  0  0  0  0  0  0
  -29.0367   16.3546  -18.0494 H   0  0  0  0  0  0  0  0  0  0  0  0
  -28.4992   14.1753  -16.4210 S   0  5  0  0  0  0  0  0  0  0  0  0
  -31.9212   19.1605  -16.9490 O   0  0  0  0  0  0  0  0  0  0  0  0
  -32.0935   20.0497  -17.3119 H   0  0  0  0  0  0  0  0  0  0  0  0
  2  3  1  0  0  0  0
  2 11  1  0  0  0  0
  2  1  1  6  0  0  0
  3  4  1  0  0  0  0
  3  8  2  0  0  0  0
  4  5  1  0  0  0  0
  4  6  1  0  0  0  0
  6  7  2  0  0  0  0
  7  8  1  0  0  0  0
  7 10  1  0  0  0  0
  8  9  1  0  0  0  0
 11 12  1  0  0  0  0
M  CHG  2   8   1  10  -1
M  END
>  <CHROM.0>
-61.70002775,-59.20710548,-64.34443195,-42.86887035,-59.24388437,-178.37476160
-67.91939349,-66.50698997,-168.94768852

>  <CHROM.1>
-158.80712684,-62.72627299,-29.97289209,16.75451463,-16.66462994,-2.45847394
-0.92947270,2.07121578

>  <Name>
P66010263

>  <RI>
0

>  <Rbt.Current_Directory>
/home/fstefaniak/projects/zuza/docking/adenine/4TZX

>  <Rbt.Executable>
rbdock ($Id: //depot/dev/client3/rdock/2013.1/src/exe/rbdock.cxx#4 $)

>  <Rbt.Library>
libRbt.so (2013.1, Build901 2013/11/27)

>  <Rbt.Parameter_File>
/home/fstefaniak/progs/rDock//data/scripts/dock_solv.prm

>  <Rbt.Receptor>
4tzx.prm

>  <SCORE>
-55.1149

>  <SCORE.INTER>
-33.465

>  <SCORE.INTER.CONST>
1

>  <SCORE.INTER.POLAR>
-3.88641

>  <SCORE.INTER.ROT>
1

>  <SCORE.INTER.SOLV>
15.9737

>  <SCORE.INTER.VDW>
-18.9465

>  <SCORE.INTER.norm>
-3.71833

>  <SCORE.INTRA>
-0.730457

>  <SCORE.INTRA.DIHEDRAL>
-3.12287

>  <SCORE.INTRA.DIHEDRAL.0>
4.25128

>  <SCORE.INTRA.POLAR>
0

>  <SCORE.INTRA.POLAR.0>
0

>  <SCORE.INTRA.REPUL>
0

>  <SCORE.INTRA.REPUL.0>
0

>  <SCORE.INTRA.SOLV>
-0.100732

>  <SCORE.INTRA.SOLV.lig_0>
-29.3101

>  <SCORE.INTRA.VDW>
0.881343

>  <SCORE.INTRA.VDW.0>
-0.757086

>  <SCORE.INTRA.norm>
-0.0811619

>  <SCORE.RESTR>
0

>  <SCORE.RESTR.CAVITY>
0

>  <SCORE.RESTR.norm>
0

>  <SCORE.SYSTEM>
-20.9195

>  <SCORE.SYSTEM.CONST>
0

>  <SCORE.SYSTEM.DIHEDRAL>
4.56723

>  <SCORE.SYSTEM.POLAR>
-3.04723

>  <SCORE.SYSTEM.SOLV>
0.0531751

>  <SCORE.SYSTEM.VDW>
-5.32905

>  <SCORE.SYSTEM.norm>
-2.32439

>  <SCORE.heavy>
9

>  <SCORE.norm>
-6.12388

$$$$
P66010263
 OpenBabel12072022113D
libRbt.so/2013.1/901 2013/11/27
 12 12  0  0  0  0  0  0  0  0999 V2000
  -30.5585   18.6336  -18.8532 C   0  0  0  0  0  0  0  0  0  0  0  0
  -30.5842   18.7372  -17.3396 C   0  0  2  0  0  0  0  0  0  0  0  0
  -30.1952   17.4607  -16.6467 C   0  0  0  0  0  0  0  0  0  0  0  0
  -30.5025   17.1280  -15.3840 N   0  0  0  0  0  0  0  0  0  0  0  0
  -31.0388   17.6832  -14.7247 H   0  0  0  0  0  0  0  0  0  0  0  0
  -29.9767   15.9063  -15.0488 N   0  0  0  0  0  0  0  0  0  0  0  0
  -29.3737   15.5491  -16.1234 C   0  0  0  0  0  0  0  0  0  0  0  0
  -29.4749   16.4542  -17.1233 N   0  3  0  0  0  0  0  0  0  0  0  0
  -29.0423   16.2947  -18.0217 H   0  0  0  0  0  0  0  0  0  0  0  0
  -28.5026   14.1372  -16.3652 S   0  5  0  0  0  0  0  0  0  0  0  0
  -31.8996   19.1351  -16.9365 O   0  0  0  0  0  0  0  0  0  0  0  0
  -32.0676   20.0224  -17.3063 H   0  0  0  0  0  0  0  0  0  0  0  0
  2  3  1  0  0  0  0
  2 11  1  0  0  0  0
  2  1  1  6  0  0  0
  3  4  1  0  0  0  0
  3  8  2  0  0  0  0
  4  5  1  0  0  0  0
  4  6  1  0  0  0  0
  6  7  2  0  0  0  0
  7  8  1  0  0  0  0
  7 10  1  0  0  0  0
  8  9  1  0  0  0  0
 11 12  1  0  0  0  0
M  CHG  2   8   1  10  -1
M  END
>  <CHROM.0>
-56.44314188,-57.40755466,-66.42530934,-42.28693501,-54.06272909,-58.54103033
-67.00277890,-174.01901872,-169.09503768

>  <CHROM.1>
-158.70436458,-63.11072306,-29.96373976,16.72116237,-16.63458935,-2.46802316
-0.93922941,2.04826331

>  <Name>
P66010263

>  <RI>
0

>  <Rbt.Current_Directory>
/home/fstefaniak/projects/zuza/docking/adenine/4TZX

>  <Rbt.Executable>
rbdock ($Id: //depot/dev/client3/rdock/2013.1/src/exe/rbdock.cxx#4 $)

>  <Rbt.Library>
libRbt.so (2013.1, Build901 2013/11/27)

>  <Rbt.Parameter_File>
/home/fstefaniak/progs/rDock//data/scripts/dock_solv.prm

>  <Rbt.Receptor>
4tzx.prm

>  <SCORE>
-54.9976

>  <SCORE.INTER>
-33.3019

>  <SCORE.INTER.CONST>
1

>  <SCORE.INTER.POLAR>
-3.88221

>  <SCORE.INTER.ROT>
1

>  <SCORE.INTER.SOLV>
15.897

>  <SCORE.INTER.VDW>
-18.8262

>  <SCORE.INTER.norm>
-3.70021

>  <SCORE.INTRA>
-0.735603

>  <SCORE.INTRA.DIHEDRAL>
-3.1121

>  <SCORE.INTRA.DIHEDRAL.0>
4.25128

>  <SCORE.INTRA.POLAR>
0

>  <SCORE.INTRA.POLAR.0>
0

>  <SCORE.INTRA.REPUL>
0

>  <SCORE.INTRA.REPUL.0>
0

>  <SCORE.INTRA.SOLV>
-0.0999282

>  <SCORE.INTRA.SOLV.lig_0>
-29.3101

>  <SCORE.INTRA.VDW>
0.870411

>  <SCORE.INTRA.VDW.0>
-0.757086

>  <SCORE.INTRA.norm>
-0.0817336

>  <SCORE.RESTR>
0

>  <SCORE.RESTR.CAVITY>
0

>  <SCORE.RESTR.norm>
0

>  <SCORE.SYSTEM>
-20.9601

>  <SCORE.SYSTEM.CONST>
0

>  <SCORE.SYSTEM.DIHEDRAL>
4.87646

>  <SCORE.SYSTEM.POLAR>
-3.09758

>  <SCORE.SYSTEM.SOLV>
0.0731469

>  <SCORE.SYSTEM.VDW>
-5.29802

>  <SCORE.SYSTEM.norm>
-2.3289

>  <SCORE.heavy>
9

>  <SCORE.norm>
-6.11085

$$$$
P67315782
 OpenBabel12072022113D
libRbt.so/2013.1/901 2013/11/27
 12 12  0  0  0  0  0  0  0  0999 V2000
  -31.3522   18.9923  -17.6865 C   0  0  0  0  0  0  0  0  0  0  0  0
  -30.3944   18.6359  -16.5567 C   0  0  2  0  0  0  0  0  0  0  0  0
  -29.9719   17.1661  -16.5168 C   0  0  1  0  0  0  0  0  0  0  0  0
  -31.0296   16.5614  -15.6119 C   0  0  2  0  0  0  0  0  0  0  0  0
  -31.2161   17.6854  -14.5957 C   0  0  2  0  0  0  0  0  0  0  0  0
  -31.0561   18.9151  -15.3001 O   0  0  0  0  0  0  0  0  0  0  0  0
  -30.1915   17.5934  -13.6115 O   0  0  0  0  0  0  0  0  0  0  0  0
  -30.5860   15.3344  -15.0360 O   0  0  0  0  0  0  0  0  0  0  0  0
  -29.9223   16.5268  -17.7842 O   0  0  0  0  0  0  0  0  0  0  0  0
  -30.0977   18.5030  -13.2771 H   0  0  0  0  0  0  0  0  0  0  0  0
  -30.7320   14.6587  -15.7312 H   0  0  0  0  0  0  0  0  0  0  0  0
  -29.7875   15.5771  -17.6012 H   0  0  0  0  0  0  0  0  0  0  0  0
  2  6  1  0  0  0  0
  2  1  1  6  0  0  0
  2  3  1  0  0  0  0
  3  9  1  6  0  0  0
  3  4  1  0  0  0  0
  4  8  1  1  0  0  0
  4  5  1  0  0  0  0
  5  6  1  0  0  0  0
  5  7  1  1  0  0  0
  7 10  1  0  0  0  0
  8 11  1  0  0  0  0
  9 12  1  0  0  0  0
M  END
>  <CHROM.0>
-59.97093962,-174.92349575,-70.82056232,-43.59243568,-56.40369181,-66.31504359
-170.23345802,-57.27652824,-169.01115542

>  <CHROM.1>
-170.92550077,-81.03799655,154.10376726,-30.61917200,17.44926866,-15.83826139
1.69360211,1.35482980,-1.28778957

>  <Name>
P67315782

>  <RI>
0

>  <Rbt.Current_Directory>
/home/fstefaniak/projects/zuza/docking/adenine/4TZX

>  <Rbt.Executable>
rbdock ($Id: //depot/dev/client3/rdock/2013.1/src/exe/rbdock.cxx#4 $)

>  <Rbt.Library>
libRbt.so (2013.1, Build901 2013/11/27)

>  <Rbt.Parameter_File>
/home/fstefaniak/progs/rDock//data/scripts/dock_solv.prm

>  <Rbt.Receptor>
4tzx.prm

>  <SCORE>
-55.7372

>  <SCORE.INTER>
-37.0075

>  <SCORE.INTER.CONST>
1

>  <SCORE.INTER.POLAR>
-5.28892

>  <SCORE.INTER.ROT>
0

>  <SCORE.INTER.SOLV>
13.6133

>  <SCORE.INTER.VDW>
-15.1797

>  <SCORE.INTER.norm>
-4.11194

>  <SCORE.INTRA>
1.72017

>  <SCORE.INTRA.DIHEDRAL>
2.32667

>  <SCORE.INTRA.DIHEDRAL.0>
3.00949

>  <SCORE.INTRA.POLAR>
0.339103

>  <SCORE.INTRA.POLAR.0>
-0.339103

>  <SCORE.INTRA.REPUL>
0

>  <SCORE.INTRA.REPUL.0>
0

>  <SCORE.INTRA.SOLV>
-0.119493

>  <SCORE.INTRA.SOLV.lig_0>
-16.2546

>  <SCORE.INTRA.VDW>
-0.536373

>  <SCORE.INTRA.VDW.0>
0.214379

>  <SCORE.INTRA.norm>
0.191129

>  <SCORE.RESTR>
0

>  <SCORE.RESTR.CAVITY>
0

>  <SCORE.RESTR.norm>
0

>  <SCORE.SYSTEM>
-20.4499

>  <SCORE.SYSTEM.CONST>
0

>  <SCORE.SYSTEM.DIHEDRAL>
5.21306

>  <SCORE.SYSTEM.POLAR>
-3.03765

>  <SCORE.SYSTEM.SOLV>
0.123775

>  <SCORE.SYSTEM.VDW>
-5.28669

>  <SCORE.SYSTEM.norm>
-2.27221

>  <SCORE.heavy>
9

>  <SCORE.norm>
-6.19302

$$$$
P67315782
 OpenBabel12072022113D
libRbt.so/2013.1/901 2013/11/27
 12 12  0  0  0  0  0  0  0  0999 V2000
  -31.2734   18.9372  -17.7597 C   0  0  0  0  0  0  0  0  0  0  0  0
  -30.3249   18.5640  -16.6274 C   0  0  2  0  0  0  0  0  0  0  0  0
  -29.9728   17.0771  -16.5527 C   0  0  1  0  0  0  0  0  0  0  0  0
  -31.0511   16.5470  -15.6255 C   0  0  2  0  0  0  0  0  0  0  0  0
  -31.1757   17.7039  -14.6373 C   0  0  2  0  0  0  0  0  0  0  0  0
  -30.9626   18.9063  -15.3741 O   0  0  0  0  0  0  0  0  0  0  0  0
  -30.1489   17.5878  -13.6578 O   0  0  0  0  0  0  0  0  0  0  0  0
  -30.6622   15.3150  -15.0212 O   0  0  0  0  0  0  0  0  0  0  0  0
  -29.9638   16.4042  -17.8035 O   0  0  0  0  0  0  0  0  0  0  0  0
  -30.0440   18.4919  -13.3121 H   0  0  0  0  0  0  0  0  0  0  0  0
  -30.7466   14.6445  -15.7316 H   0  0  0  0  0  0  0  0  0  0  0  0
  -29.0932   16.5924  -18.2037 H   0  0  0  0  0  0  0  0  0  0  0  0
  2  6  1  0  0  0  0
  2  1  1  6  0  0  0
  2  3  1  0  0  0  0
  3  9  1  6  0  0  0
  3  4  1  0  0  0  0
  4  8  1  1  0  0  0
  4  5  1  0  0  0  0
  5  6  1  0  0  0  0
  5  7  1  1  0  0  0
  7 10  1  0  0  0  0
  8 11  1  0  0  0  0
  9 12  1  0  0  0  0
M  END
>  <CHROM.0>
-59.44939644,-59.91529250,-63.28258924,-42.00318764,-55.81484137,-60.26101572
-65.16721525,-59.36338752,-168.28678094

>  <CHROM.1>
82.26953474,-74.62923329,157.16218559,-30.59415851,17.41667779,-15.88184199
1.58853273,1.39253233,-1.22803388

>  <Name>
P67315782

>  <RI>
0

>  <Rbt.Current_Directory>
/home/fstefaniak/projects/zuza/docking/adenine/4TZX

>  <Rbt.Executable>
rbdock ($Id: //depot/dev/client3/rdock/2013.1/src/exe/rbdock.cxx#4 $)

>  <Rbt.Library>
libRbt.so (2013.1, Build901 2013/11/27)

>  <Rbt.Parameter_File>
/home/fstefaniak/progs/rDock//data/scripts/dock_solv.prm

>  <Rbt.Receptor>
4tzx.prm

>  <SCORE>
-55.6307

>  <SCORE.INTER>
-36.2755

>  <SCORE.INTER.CONST>
1

>  <SCORE.INTER.POLAR>
-5.23691

>  <SCORE.INTER.ROT>
0

>  <SCORE.INTER.SOLV>
13.8081

>  <SCORE.INTER.VDW>
-14.93

>  <SCORE.INTER.norm>
-4.03061

>  <SCORE.INTRA>
1.6726

>  <SCORE.INTRA.DIHEDRAL>
2.60874

>  <SCORE.INTRA.DIHEDRAL.0>
3.00949

>  <SCORE.INTRA.POLAR>
0.339103

>  <SCORE.INTRA.POLAR.0>
-0.339103

>  <SCORE.INTRA.REPUL>
0

>  <SCORE.INTRA.REPUL.0>
0

>  <SCORE.INTRA.SOLV>
-0.221812

>  <SCORE.INTRA.SOLV.lig_0>
-16.2546

>  <SCORE.INTRA.VDW>
-0.673813

>  <SCORE.INTRA.VDW.0>
0.214379

>  <SCORE.INTRA.norm>
0.185845

>  <SCORE.RESTR>
0

>  <SCORE.RESTR.CAVITY>
0

>  <SCORE.RESTR.norm>
0

>  <SCORE.SYSTEM>
-21.0277

>  <SCORE.SYSTEM.CONST>
0

>  <SCORE.SYSTEM.DIHEDRAL>
4.42182

>  <SCORE.SYSTEM.POLAR>
-3.07712

>  <SCORE.SYSTEM.SOLV>
0.204177

>  <SCORE.SYSTEM.VDW>
-5.30343

>  <SCORE.SYSTEM.norm>
-2.33642

>  <SCORE.heavy>
9

>  <SCORE.norm>
-6.18119

$$$$
P67315782
 OpenBabel12072022113D
libRbt.so/2013.1/901 2013/11/27
 12 12  0  0  0  0  0  0  0  0999 V2000
  -31.3392   18.9325  -17.7158 C   0  0  0  0  0  0  0  0  0  0  0  0
  -30.3489   18.5567  -16.6209 C   0  0  2  0  0  0  0  0  0  0  0  0
  -29.9882   17.0709  -16.5680 C   0  0  1  0  0  0  0  0  0  0  0  0
  -31.0300   16.5306  -15.6057 C   0  0  2  0  0  0  0  0  0  0  0  0
  -31.1235   17.6811  -14.6066 C   0  0  2  0  0  0  0  0  0  0  0  0
  -30.9422   18.8888  -15.3433 O   0  0  0  0  0  0  0  0  0  0  0  0
  -30.0615   17.5636  -13.6656 O   0  0  0  0  0  0  0  0  0  0  0  0
  -30.6144   15.2968  -15.0235 O   0  0  0  0  0  0  0  0  0  0  0  0
  -30.0216   16.4056  -17.8225 O   0  0  0  0  0  0  0  0  0  0  0  0
  -29.9527   18.4646  -13.3131 H   0  0  0  0  0  0  0  0  0  0  0  0
  -30.7565   14.6241  -15.7225 H   0  0  0  0  0  0  0  0  0  0  0  0
  -29.1390   16.5358  -18.2195 H   0  0  0  0  0  0  0  0  0  0  0  0
  2  6  1  0  0  0  0
  2  1  1  6  0  0  0
  2  3  1  0  0  0  0
  3  9  1  6  0  0  0
  3  4  1  0  0  0  0
  4  8  1  1  0  0  0
  4  5  1  0  0  0  0
  5  6  1  0  0  0  0
  5  7  1  1  0  0  0
  7 10  1  0  0  0  0
  8 11  1  0  0  0  0
  9 12  1  0  0  0  0
M  END
>  <CHROM.0>
-57.10925103,-56.60204779,-67.35744381,-43.73298859,-53.19878442,-175.07750790
-69.05834534,-56.89506549,-169.31088142

>  <CHROM.1>
86.99466629,-76.88699951,157.60899442,-30.58628927,17.40325299,-15.87273721
1.79503869,1.39709530,-1.42503989

>  <Name>
P67315782

>  <RI>
0

>  <Rbt.Current_Directory>
/home/fstefaniak/projects/zuza/docking/adenine/4TZX

>  <Rbt.Executable>
rbdock ($Id: //depot/dev/client3/rdock/2013.1/src/exe/rbdock.cxx#4 $)

>  <Rbt.Library>
libRbt.so (2013.1, Build901 2013/11/27)

>  <Rbt.Parameter_File>
/home/fstefaniak/progs/rDock//data/scripts/dock_solv.prm

>  <Rbt.Receptor>
4tzx.prm

>  <SCORE>
-55.5488

>  <SCORE.INTER>
-36.9761

>  <SCORE.INTER.CONST>
1

>  <SCORE.INTER.POLAR>
-5.44115

>  <SCORE.INTER.ROT>
0

>  <SCORE.INTER.SOLV>
13.8229

>  <SCORE.INTER.VDW>
-14.7212

>  <SCORE.INTER.norm>
-4.10846

>  <SCORE.INTRA>
2.18838

>  <SCORE.INTRA.DIHEDRAL>
3.67013

>  <SCORE.INTRA.DIHEDRAL.0>
3.00949

>  <SCORE.INTRA.POLAR>
0.339103

>  <SCORE.INTRA.POLAR.0>
-0.339103

>  <SCORE.INTRA.REPUL>
0

>  <SCORE.INTRA.REPUL.0>
0

>  <SCORE.INTRA.SOLV>
-0.221355

>  <SCORE.INTRA.SOLV.lig_0>
-16.2546

>  <SCORE.INTRA.VDW>
-0.688962

>  <SCORE.INTRA.VDW.0>
0.214379

>  <SCORE.INTRA.norm>
0.243153

>  <SCORE.RESTR>
0

>  <SCORE.RESTR.CAVITY>
0

>  <SCORE.RESTR.norm>
0

>  <SCORE.SYSTEM>
-20.761

>  <SCORE.SYSTEM.CONST>
0

>  <SCORE.SYSTEM.DIHEDRAL>
4.88972

>  <SCORE.SYSTEM.POLAR>
-3.0658

>  <SCORE.SYSTEM.SOLV>
0.0771921

>  <SCORE.SYSTEM.VDW>
-5.27698

>  <SCORE.SYSTEM.norm>
-2.30678

>  <SCORE.heavy>
9

>  <SCORE.norm>
-6.17209

$$$$
P67889152
 OpenBabel12072022113D
libRbt.so/2013.1/901 2013/11/27
 16 16  0  0  0  0  0  0  0  0999 V2000
  -25.2123   11.6384  -16.3606 C   0  0  0  0  0  0  0  0  0  0  0  0
  -25.6423   12.3809  -15.0798 C   0  0  0  0  0  0  0  0  0  0  0  0
  -27.1768   12.3096  -14.8836 C   0  0  0  0  0  0  0  0  0  0  0  0
  -27.6889   10.9176  -14.5130 C   0  0  0  0  0  0  0  0  0  0  0  0
  -26.9709   10.3550  -13.2933 C   0  0  0  0  0  0  0  0  0  0  0  0
  -25.4599   10.3577  -13.4825 C   0  0  0  0  0  0  0  0  0  0  0  0
  -24.9442   11.7480  -13.8477 C   0  0  0  0  0  0  0  0  0  0  0  0
  -25.1960   13.7883  -15.1501 N   0  0  0  0  0  0  0  0  0  0  0  0
  -25.7208   14.7250  -16.0087 C   0  0  0  0  0  0  0  0  0  0  0  0
  -26.7418   14.5987  -16.6729 O   0  0  0  0  0  0  0  0  0  0  0  0
  -24.9278   15.8689  -16.0440 N   0  0  0  0  0  0  0  0  0  0  0  0
  -24.8777   16.6165  -17.2490 N   0  0  0  0  0  0  0  0  0  0  0  0
  -24.2249   13.9547  -14.9269 H   0  0  0  0  0  0  0  0  0  0  0  0
  -24.8904   16.3989  -15.1772 H   0  0  0  0  0  0  0  0  0  0  0  0
  -25.7193   17.2114  -17.2575 H   0  0  0  0  0  0  0  0  0  0  0  0
  -25.0520   15.9590  -18.0148 H   0  0  0  0  0  0  0  0  0  0  0  0
  1  2  1  0  0  0  0
  2  3  1  0  0  0  0
  2  7  1  0  0  0  0
  2  8  1  0  0  0  0
  3  4  1  0  0  0  0
  4  5  1  0  0  0  0
  5  6  1  0  0  0  0
  6  7  1  0  0  0  0
  8  9  1  0  0  0  0
  8 13  1  0  0  0  0
  9 10  2  0  0  0  0
  9 11  1  0  0  0  0
 11 12  1  0  0  0  0
 11 14  1  0  0  0  0
 12 15  1  0  0  0  0
 12 16  1  0  0  0  0
M  END
>  <CHROM.0>
-64.50883152,59.36976894,62.02013548,50.80786484,-56.15089018,-173.24029284
53.96091214,-179.09231385,-169.10772845

>  <CHROM.1>
69.49069430,11.96809753,149.19582553,81.52256328,-25.86954376,13.00740786
-15.25746994,-1.76585318,-0.26063665,-0.54685866

>  <Name>
P67889152

>  <RI>
0

>  <Rbt.Current_Directory>
/home/fstefaniak/projects/zuza/docking/adenine/4TZX

>  <Rbt.Executable>
rbdock ($Id: //depot/dev/client3/rdock/2013.1/src/exe/rbdock.cxx#4 $)

>  <Rbt.Library>
libRbt.so (2013.1, Build901 2013/11/27)

>  <Rbt.Parameter_File>
/home/fstefaniak/progs/rDock//data/scripts/dock_solv.prm

>  <Rbt.Receptor>
4tzx.prm

>  <SCORE>
-45.0794

>  <SCORE.INTER>
-29.5258

>  <SCORE.INTER.CONST>
1

>  <SCORE.INTER.POLAR>
-5.1491

>  <SCORE.INTER.ROT>
4

>  <SCORE.INTER.SOLV>
10.9416

>  <SCORE.INTER.VDW>
-12.434

>  <SCORE.INTER.norm>
-2.46048

>  <SCORE.INTRA>
-0.620483

>  <SCORE.INTRA.DIHEDRAL>
-1.03868

>  <SCORE.INTRA.DIHEDRAL.0>
2.72739

>  <SCORE.INTRA.POLAR>
0

>  <SCORE.INTRA.POLAR.0>
0

>  <SCORE.INTRA.REPUL>
0

>  <SCORE.INTRA.REPUL.0>
0

>  <SCORE.INTRA.SOLV>
0.0575081

>  <SCORE.INTRA.SOLV.lig_0>
-15.5592

>  <SCORE.INTRA.VDW>
-0.1299

>  <SCORE.INTRA.VDW.0>
-0.0442612

>  <SCORE.INTRA.norm>
-0.0517069

>  <SCORE.RESTR>
0

>  <SCORE.RESTR.CAVITY>
0

>  <SCORE.RESTR.norm>
0

>  <SCORE.SYSTEM>
-14.9332

>  <SCORE.SYSTEM.CONST>
0

>  <SCORE.SYSTEM.DIHEDRAL>
3.59905

>  <SCORE.SYSTEM.POLAR>
-2.41502

>  <SCORE.SYSTEM.SOLV>
-0.171876

>  <SCORE.SYSTEM.VDW>
-3.04781

>  <SCORE.SYSTEM.norm>
-1.24443

>  <SCORE.heavy>
12

>  <SCORE.norm>
-3.75662

$$$$
P67889152
 OpenBabel12072022113D
libRbt.so/2013.1/901 2013/11/27
 16 16  0  0  0  0  0  0  0  0999 V2000
  -29.3770   15.0669  -16.1820 C   0  0  0  0  0  0  0  0  0  0  0  0
  -28.7549   16.4709  -16.3177 C   0  0  0  0  0  0  0  0  0  0  0  0
  -29.4660   17.2907  -17.4225 C   0  0  0  0  0  0  0  0  0  0  0  0
  -30.8890   17.7152  -17.0585 C   0  0  0  0  0  0  0  0  0  0  0  0
  -30.9368   18.4598  -15.7307 C   0  0  0  0  0  0  0  0  0  0  0  0
  -30.2963   17.6502  -14.6113 C   0  0  0  0  0  0  0  0  0  0  0  0
  -28.8727   17.2289  -14.9694 C   0  0  0  0  0  0  0  0  0  0  0  0
  -27.3124   16.3464  -16.6153 N   0  0  0  0  0  0  0  0  0  0  0  0
  -26.4737   15.4370  -16.0156 C   0  0  0  0  0  0  0  0  0  0  0  0
  -26.8024   14.3499  -15.5573 O   0  0  0  0  0  0  0  0  0  0  0  0
  -25.1656   15.9124  -15.9804 N   0  0  0  0  0  0  0  0  0  0  0  0
  -24.6034   16.4257  -17.1779 N   0  0  0  0  0  0  0  0  0  0  0  0
  -26.8433   17.1984  -16.8887 H   0  0  0  0  0  0  0  0  0  0  0  0
  -24.8933   16.3724  -15.1156 H   0  0  0  0  0  0  0  0  0  0  0  0
  -24.9462   15.8242  -17.9414 H   0  0  0  0  0  0  0  0  0  0  0  0
  -23.6014   16.2155  -17.1503 H   0  0  0  0  0  0  0  0  0  0  0  0
  1  2  1  0  0  0  0
  2  3  1  0  0  0  0
  2  7  1  0  0  0  0
  2  8  1  0  0  0  0
  3  4  1  0  0  0  0
  4  5  1  0  0  0  0
  5  6  1  0  0  0  0
  6  7  1  0  0  0  0
  8  9  1  0  0  0  0
  8 13  1  0  0  0  0
  9 10  2  0  0  0  0
  9 11  1  0  0  0  0
 11 12  1  0  0  0  0
 11 14  1  0  0  0  0
 12 15  1  0  0  0  0
 12 16  1  0  0  0  0
M  END
>  <CHROM.0>
-55.65497134,74.84782200,-54.91193572,-42.21247959,-174.22723205,-58.24070386
-61.74675313,-65.08680394,-168.41462198

>  <CHROM.1>
-41.49141298,27.61451299,-49.31986716,-38.11227959,-28.17691249,16.50644710
-16.14429604,2.86175773,0.27609373,-0.57478941

>  <Name>
P67889152

>  <RI>
0

>  <Rbt.Current_Directory>
/home/fstefaniak/projects/zuza/docking/adenine/4TZX

>  <Rbt.Executable>
rbdock ($Id: //depot/dev/client3/rdock/2013.1/src/exe/rbdock.cxx#4 $)

>  <Rbt.Library>
libRbt.so (2013.1, Build901 2013/11/27)

>  <Rbt.Parameter_File>
/home/fstefaniak/progs/rDock//data/scripts/dock_solv.prm

>  <Rbt.Receptor>
4tzx.prm

>  <SCORE>
-44.2128

>  <SCORE.INTER>
-25.669

>  <SCORE.INTER.CONST>
1

>  <SCORE.INTER.POLAR>
-3.70833

>  <SCORE.INTER.ROT>
4

>  <SCORE.INTER.SOLV>
14.5637

>  <SCORE.INTER.VDW>
-15.8728

>  <SCORE.INTER.norm>
-2.13908

>  <SCORE.INTRA>
0.694246

>  <SCORE.INTRA.DIHEDRAL>
-1.06297

>  <SCORE.INTRA.DIHEDRAL.0>
2.72739

>  <SCORE.INTRA.POLAR>
-0.00867871

>  <SCORE.INTRA.POLAR.0>
0

>  <SCORE.INTRA.REPUL>
0

>  <SCORE.INTRA.REPUL.0>
0

>  <SCORE.INTRA.SOLV>
0.337126

>  <SCORE.INTRA.SOLV.lig_0>
-15.5592

>  <SCORE.INTRA.VDW>
1.08668

>  <SCORE.INTRA.VDW.0>
-0.0442612

>  <SCORE.INTRA.norm>
0.0578539

>  <SCORE.RESTR>
0

>  <SCORE.RESTR.CAVITY>
0

>  <SCORE.RESTR.norm>
0

>  <SCORE.SYSTEM>
-19.2381

>  <SCORE.SYSTEM.CONST>
0

>  <SCORE.SYSTEM.DIHEDRAL>
5.63611

>  <SCORE.SYSTEM.POLAR>
-3.12749

>  <SCORE.SYSTEM.SOLV>
0.0388148

>  <SCORE.SYSTEM.VDW>
-4.29208

>  <SCORE.SYSTEM.norm>
-1.60317

>  <SCORE.heavy>
12

>  <SCORE.norm>
-3.6844

$$$$
P67889152
 OpenBabel12072022113D
libRbt.so/2013.1/901 2013/11/27
 16 16  0  0  0  0  0  0  0  0999 V2000
  -27.7000   13.1026  -18.2532 C   0  0  0  0  0  0  0  0  0  0  0  0
  -27.5891   13.8481  -16.9083 C   0  0  0  0  0  0  0  0  0  0  0  0
  -27.7929   12.8801  -15.7167 C   0  0  0  0  0  0  0  0  0  0  0  0
  -26.6416   11.8942  -15.5169 C   0  0  0  0  0  0  0  0  0  0  0  0
  -25.2997   12.6050  -15.4002 C   0  0  0  0  0  0  0  0  0  0  0  0
  -25.0455   13.5203  -16.5904 C   0  0  0  0  0  0  0  0  0  0  0  0
  -26.1914   14.5102  -16.7897 C   0  0  0  0  0  0  0  0  0  0  0  0
  -28.5858   14.9388  -16.8633 N   0  0  0  0  0  0  0  0  0  0  0  0
  -28.8251   15.7238  -15.7603 C   0  0  0  0  0  0  0  0  0  0  0  0
  -28.0350   16.5096  -15.2525 O   0  0  0  0  0  0  0  0  0  0  0  0
  -30.1088   15.5103  -15.2653 N   0  0  0  0  0  0  0  0  0  0  0  0
  -30.7971   16.6065  -14.6839 N   0  0  0  0  0  0  0  0  0  0  0  0
  -29.4011   14.8157  -17.4470 H   0  0  0  0  0  0  0  0  0  0  0  0
  -30.6716   14.8449  -15.7889 H   0  0  0  0  0  0  0  0  0  0  0  0
  -31.3871   17.0072  -15.4279 H   0  0  0  0  0  0  0  0  0  0  0  0
  -30.1024   17.3409  -14.5193 H   0  0  0  0  0  0  0  0  0  0  0  0
  1  2  1  0  0  0  0
  2  3  1  0  0  0  0
  2  7  1  0  0  0  0
  2  8  1  0  0  0  0
  3  4  1  0  0  0  0
  4  5  1  0  0  0  0
  5  6  1  0  0  0  0
  6  7  1  0  0  0  0
  8  9  1  0  0  0  0
  8 13  1  0  0  0  0
  9 10  2  0  0  0  0
  9 11  1  0  0  0  0
 11 12  1  0  0  0  0
 11 14  1  0  0  0  0
 12 15  1  0  0  0  0
 12 16  1  0  0  0  0
M  END
>  <CHROM.0>
-61.00445810,-178.49440037,-63.58113419,-40.95777411,62.07533699,-61.60407918
-68.93696875,-57.52234362,-169.24466339

>  <CHROM.1>
174.36155028,65.32244715,-146.37185097,95.26899846,-27.77188507,14.35063090
-16.07408006,0.64126362,0.39199019,-2.35128639

>  <Name>
P67889152

>  <RI>
0

>  <Rbt.Current_Directory>
/home/fstefaniak/projects/zuza/docking/adenine/4TZX

>  <Rbt.Executable>
rbdock ($Id: //depot/dev/client3/rdock/2013.1/src/exe/rbdock.cxx#4 $)

>  <Rbt.Library>
libRbt.so (2013.1, Build901 2013/11/27)

>  <Rbt.Parameter_File>
/home/fstefaniak/progs/rDock//data/scripts/dock_solv.prm

>  <Rbt.Receptor>
4tzx.prm

>  <SCORE>
-43.5124

>  <SCORE.INTER>
-23.1528

>  <SCORE.INTER.CONST>
1

>  <SCORE.INTER.POLAR>
-2.91768

>  <SCORE.INTER.ROT>
4

>  <SCORE.INTER.SOLV>
13.0428

>  <SCORE.INTER.VDW>
-16.3238

>  <SCORE.INTER.norm>
-1.9294

>  <SCORE.INTRA>
-0.275081

>  <SCORE.INTRA.DIHEDRAL>
-0.190722

>  <SCORE.INTRA.DIHEDRAL.0>
2.72739

>  <SCORE.INTRA.POLAR>
0

>  <SCORE.INTRA.POLAR.0>
0

>  <SCORE.INTRA.REPUL>
0

>  <SCORE.INTRA.REPUL.0>
0

>  <SCORE.INTRA.SOLV>
0.26794

>  <SCORE.INTRA.SOLV.lig_0>
-15.5592

>  <SCORE.INTRA.VDW>
-0.31369

>  <SCORE.INTRA.VDW.0>
-0.0442612

>  <SCORE.INTRA.norm>
-0.0229234

>  <SCORE.RESTR>
0.00477974

>  <SCORE.RESTR.CAVITY>
0.00477974

>  <SCORE.RESTR.norm>
0.000398312

>  <SCORE.SYSTEM>
-20.0893

>  <SCORE.SYSTEM.CONST>
0

>  <SCORE.SYSTEM.DIHEDRAL>
4.72606

>  <SCORE.SYSTEM.POLAR>
-3.07305

>  <SCORE.SYSTEM.SOLV>
-0.0558027

>  <SCORE.SYSTEM.VDW>
-4.70613

>  <SCORE.SYSTEM.norm>
-1.67411

>  <SCORE.heavy>
12

>  <SCORE.norm>
-3.62603

$$$$
P74273782
 OpenBabel12072022113D
libRbt.so/2013.1/901 2013/11/27
 15 16  0  0  0  0  0  0  0  0999 V2000
  -30.1940   18.1891  -16.7928 C   0  0  0  0  0  0  0  0  0  0  0  0
  -29.7491   16.9503  -17.5818 C   0  0  0  0  0  0  0  0  0  0  0  0
  -29.5553   15.8921  -16.4793 C   0  0  2  0  0  0  0  0  0  0  0  0
  -30.7050   16.2380  -15.5341 C   0  0  0  0  0  0  0  0  0  0  0  0
  -30.2180   17.6699  -15.3439 C   0  0  1  0  0  0  0  0  0  0  0  0
  -28.7701   17.4375  -14.8889 C   0  0  0  0  0  0  0  0  0  0  0  0
  -28.4117   16.1815  -15.5811 N   0  0  0  0  0  0  0  0  0  0  0  0
  -27.0976   16.2686  -16.2403 C   0  0  0  0  0  0  0  0  0  0  0  0
  -26.4379   14.8846  -16.2464 C   0  0  0  0  0  0  0  0  0  0  0  0
  -25.6540   14.5660  -15.2583 N   0  0  0  0  0  0  0  0  0  0  0  0
  -25.1001   13.2903  -15.4577 O   0  0  0  0  0  0  0  0  0  0  0  0
  -26.6899   14.0713  -17.3281 N   0  0  0  0  0  0  0  0  0  0  0  0
  -24.1674   13.5022  -15.6473 H   0  0  0  0  0  0  0  0  0  0  0  0
  -25.9182   14.0638  -17.9899 H   0  0  0  0  0  0  0  0  0  0  0  0
  -26.9806   13.1490  -17.0217 H   0  0  0  0  0  0  0  0  0  0  0  0
  1  2  1  0  0  0  0
  3  2  1  6  0  0  0
  3  4  1  0  0  0  0
  3  7  1  0  0  0  0
  4  5  1  0  0  0  0
  5  1  1  6  0  0  0
  5  6  1  0  0  0  0
  6  7  1  0  0  0  0
  7  8  1  0  0  0  0
  8  9  1  0  0  0  0
  9 10  2  0  0  0  0
  9 12  1  0  0  0  0
 10 11  1  0  0  0  0
 11 13  1  0  0  0  0
 12 14  1  0  0  0  0
 12 15  1  0  0  0  0
M  END
>  <CHROM.0>
-59.38850116,40.73430147,-68.77068248,-44.39481734,-58.55048517,-60.77722411
-166.72486299,-175.65147826,-169.27655146

>  <CHROM.1>
-90.72751601,-91.69931054,101.44297283,109.28687824,-28.13548401,15.89947906
-16.06832883,2.91701866,-0.60958951,1.13378495

>  <Name>
P74273782

>  <RI>
0

>  <Rbt.Current_Directory>
/home/fstefaniak/projects/zuza/docking/adenine/4TZX

>  <Rbt.Executable>
rbdock ($Id: //depot/dev/client3/rdock/2013.1/src/exe/rbdock.cxx#4 $)

>  <Rbt.Library>
libRbt.so (2013.1, Build901 2013/11/27)

>  <Rbt.Parameter_File>
/home/fstefaniak/progs/rDock//data/scripts/dock_solv.prm

>  <Rbt.Receptor>
4tzx.prm

>  <SCORE>
-43.1247

>  <SCORE.INTER>
-23.6174

>  <SCORE.INTER.CONST>
1

>  <SCORE.INTER.POLAR>
-3.39208

>  <SCORE.INTER.ROT>
3

>  <SCORE.INTER.SOLV>
9.93959

>  <SCORE.INTER.VDW>
-13.3512

>  <SCORE.INTER.norm>
-1.96811

>  <SCORE.INTRA>
-0.260286

>  <SCORE.INTRA.DIHEDRAL>
-0.460769

>  <SCORE.INTRA.DIHEDRAL.0>
3.80758

>  <SCORE.INTRA.POLAR>
0.0969528

>  <SCORE.INTRA.POLAR.0>
-0.0969528

>  <SCORE.INTRA.REPUL>
0

>  <SCORE.INTRA.REPUL.0>
0

>  <SCORE.INTRA.SOLV>
-0.285087

>  <SCORE.INTRA.SOLV.lig_0>
-10.4179

>  <SCORE.INTRA.VDW>
-0.216998

>  <SCORE.INTRA.VDW.0>
-0.928217

>  <SCORE.INTRA.norm>
-0.0216905

>  <SCORE.RESTR>
0

>  <SCORE.RESTR.CAVITY>
0

>  <SCORE.RESTR.norm>
0

>  <SCORE.SYSTEM>
-19.2471

>  <SCORE.SYSTEM.CONST>
0

>  <SCORE.SYSTEM.DIHEDRAL>
6.59896

>  <SCORE.SYSTEM.POLAR>
-3.11395

>  <SCORE.SYSTEM.SOLV>
0.156062

>  <SCORE.SYSTEM.VDW>
-4.70324

>  <SCORE.SYSTEM.norm>
-1.60392

>  <SCORE.heavy>
12

>  <SCORE.norm>
-3.59373

$$$$
P74273782
 OpenBabel12072022113D
libRbt.so/2013.1/901 2013/11/27
 15 16  0  0  0  0  0  0  0  0999 V2000
  -29.0952   17.5624  -14.4657 C   0  0  0  0  0  0  0  0  0  0  0  0
  -30.6280   17.5745  -14.3918 C   0  0  0  0  0  0  0  0  0  0  0  0
  -31.0357   16.6618  -15.5638 C   0  0  2  0  0  0  0  0  0  0  0  0
  -29.9413   15.5972  -15.5021 C   0  0  0  0  0  0  0  0  0  0  0  0
  -28.8269   16.6256  -15.6572 C   0  0  1  0  0  0  0  0  0  0  0  0
  -29.2571   17.3439  -16.9442 C   0  0  0  0  0  0  0  0  0  0  0  0
  -30.7309   17.2415  -16.8940 N   0  0  0  0  0  0  0  0  0  0  0  0
  -31.3851   18.5281  -17.1868 C   0  0  0  0  0  0  0  0  0  0  0  0
  -32.0349   18.4651  -18.5741 C   0  0  0  0  0  0  0  0  0  0  0  0
  -33.3331   18.4910  -18.6535 N   0  0  0  0  0  0  0  0  0  0  0  0
  -33.7496   18.3710  -19.9899 O   0  0  0  0  0  0  0  0  0  0  0  0
  -31.1952   18.3461  -19.6584 N   0  0  0  0  0  0  0  0  0  0  0  0
  -33.4758   17.4605  -20.2061 H   0  0  0  0  0  0  0  0  0  0  0  0
  -30.8709   17.3914  -19.7889 H   0  0  0  0  0  0  0  0  0  0  0  0
  -31.6181   18.7555  -20.4846 H   0  0  0  0  0  0  0  0  0  0  0  0
  1  2  1  0  0  0  0
  3  2  1  1  0  0  0
  3  4  1  0  0  0  0
  3  7  1  0  0  0  0
  4  5  1  0  0  0  0
  5  1  1  1  0  0  0
  5  6  1  0  0  0  0
  6  7  1  0  0  0  0
  7  8  1  0  0  0  0
  8  9  1  0  0  0  0
  9 10  2  0  0  0  0
  9 12  1  0  0  0  0
 10 11  1  0  0  0  0
 11 13  1  0  0  0  0
 12 14  1  0  0  0  0
 12 15  1  0  0  0  0
M  END
>  <CHROM.0>
-62.49289786,53.16537055,-65.58580251,-43.20525022,-174.61688526,-64.75469059
-70.28840363,-59.85929026,-169.02664022

>  <CHROM.1>
-131.63522538,112.28001227,79.29793195,66.95391299,-30.98462995,17.58226009
-17.04564063,0.93380758,-0.24649031,1.74093301

>  <Name>
P74273782

>  <RI>
0

>  <Rbt.Current_Directory>
/home/fstefaniak/projects/zuza/docking/adenine/4TZX

>  <Rbt.Executable>
rbdock ($Id: //depot/dev/client3/rdock/2013.1/src/exe/rbdock.cxx#4 $)

>  <Rbt.Library>
libRbt.so (2013.1, Build901 2013/11/27)

>  <Rbt.Parameter_File>
/home/fstefaniak/progs/rDock//data/scripts/dock_solv.prm

>  <Rbt.Receptor>
4tzx.prm

>  <SCORE>
-41.7565

>  <SCORE.INTER>
-21.7517

>  <SCORE.INTER.CONST>
1

>  <SCORE.INTER.POLAR>
-2.78612

>  <SCORE.INTER.ROT>
3

>  <SCORE.INTER.SOLV>
13.7909

>  <SCORE.INTER.VDW>
-15.4111

>  <SCORE.INTER.norm>
-1.81265

>  <SCORE.INTRA>
0.528136

>  <SCORE.INTRA.DIHEDRAL>
0.50038

>  <SCORE.INTRA.DIHEDRAL.0>
3.80758

>  <SCORE.INTRA.POLAR>
0.0969528

>  <SCORE.INTRA.POLAR.0>
-0.0969528

>  <SCORE.INTRA.REPUL>
0

>  <SCORE.INTRA.REPUL.0>
0

>  <SCORE.INTRA.SOLV>
-0.243812

>  <SCORE.INTRA.SOLV.lig_0>
-10.4179

>  <SCORE.INTRA.VDW>
0.0702121

>  <SCORE.INTRA.VDW.0>
-0.928217

>  <SCORE.INTRA.norm>
0.0440113

>  <SCORE.RESTR>
0

>  <SCORE.RESTR.CAVITY>
0

>  <SCORE.RESTR.norm>
0

>  <SCORE.SYSTEM>
-20.5329

>  <SCORE.SYSTEM.CONST>
0

>  <SCORE.SYSTEM.DIHEDRAL>
5.02104

>  <SCORE.SYSTEM.POLAR>
-3.05485

>  <SCORE.SYSTEM.SOLV>
0.0683136

>  <SCORE.SYSTEM.VDW>
-5.2022

>  <SCORE.SYSTEM.norm>
-1.71107

>  <SCORE.heavy>
12

>  <SCORE.norm>
-3.47971

$$$$
P74273782
 OpenBabel12072022113D
libRbt.so/2013.1/901 2013/11/27
 15 16  0  0  0  0  0  0  0  0999 V2000
  -30.2901   18.1337  -16.7277 C   0  0  0  0  0  0  0  0  0  0  0  0
  -29.6844   16.9735  -17.5289 C   0  0  0  0  0  0  0  0  0  0  0  0
  -29.4358   15.9032  -16.4492 C   0  0  2  0  0  0  0  0  0  0  0  0
  -30.6581   16.0995  -15.5535 C   0  0  0  0  0  0  0  0  0  0  0  0
  -30.3293   17.5658  -15.2975 C   0  0  1  0  0  0  0  0  0  0  0  0
  -28.8884   17.4648  -14.7771 C   0  0  0  0  0  0  0  0  0  0  0  0
  -28.3713   16.2754  -15.4865 N   0  0  0  0  0  0  0  0  0  0  0  0
  -27.0434   16.5166  -16.0758 C   0  0  0  0  0  0  0  0  0  0  0  0
  -26.2392   15.2112  -16.0711 C   0  0  0  0  0  0  0  0  0  0  0  0
  -26.5692   14.2755  -16.9125 N   0  0  0  0  0  0  0  0  0  0  0  0
  -25.7636   13.1391  -16.7296 O   0  0  0  0  0  0  0  0  0  0  0  0
  -25.2311   15.0956  -15.1409 N   0  0  0  0  0  0  0  0  0  0  0  0
  -26.4198   12.4655  -16.4718 H   0  0  0  0  0  0  0  0  0  0  0  0
  -24.3793   14.7143  -15.5444 H   0  0  0  0  0  0  0  0  0  0  0  0
  -25.0982   15.9717  -14.6472 H   0  0  0  0  0  0  0  0  0  0  0  0
  1  2  1  0  0  0  0
  3  2  1  6  0  0  0
  3  4  1  0  0  0  0
  3  7  1  0  0  0  0
  4  5  1  0  0  0  0
  5  1  1  6  0  0  0
  5  6  1  0  0  0  0
  6  7  1  0  0  0  0
  7  8  1  0  0  0  0
  8  9  1  0  0  0  0
  9 10  2  0  0  0  0
  9 12  1  0  0  0  0
 10 11  1  0  0  0  0
 11 13  1  0  0  0  0
 12 14  1  0  0  0  0
 12 15  1  0  0  0  0
M  END
>  <CHROM.0>
-57.87856063,50.15734382,-45.89617075,-43.21294865,-176.82139577,-56.46634135
-68.51030546,60.70937147,-168.22812763

>  <CHROM.1>
-91.50624591,72.71080807,-135.26760948,117.55082069,-28.13220991,15.99288200
-16.06345750,2.67375029,-0.40885135,0.72397672

>  <Name>
P74273782

>  <RI>
0

>  <Rbt.Current_Directory>
/home/fstefaniak/projects/zuza/docking/adenine/4TZX

>  <Rbt.Executable>
rbdock ($Id: //depot/dev/client3/rdock/2013.1/src/exe/rbdock.cxx#4 $)

>  <Rbt.Library>
libRbt.so (2013.1, Build901 2013/11/27)

>  <Rbt.Parameter_File>
/home/fstefaniak/progs/rDock//data/scripts/dock_solv.prm

>  <Rbt.Receptor>
4tzx.prm

>  <SCORE>
-41.7496

>  <SCORE.INTER>
-22.9873

>  <SCORE.INTER.CONST>
1

>  <SCORE.INTER.POLAR>
-3.44397

>  <SCORE.INTER.ROT>
3

>  <SCORE.INTER.SOLV>
10.5431

>  <SCORE.INTER.VDW>
-12.9594

>  <SCORE.INTER.norm>
-1.91561

>  <SCORE.INTRA>
0.288997

>  <SCORE.INTRA.DIHEDRAL>
-0.271708

>  <SCORE.INTRA.DIHEDRAL.0>
3.80758

>  <SCORE.INTRA.POLAR>
0.0969528

>  <SCORE.INTRA.POLAR.0>
-0.0969528

>  <SCORE.INTRA.REPUL>
0

>  <SCORE.INTRA.REPUL.0>
0

>  <SCORE.INTRA.SOLV>
-0.47892

>  <SCORE.INTRA.SOLV.lig_0>
-10.4179

>  <SCORE.INTRA.VDW>
0.334671

>  <SCORE.INTRA.VDW.0>
-0.928217

>  <SCORE.INTRA.norm>
0.0240831

>  <SCORE.RESTR>
0

>  <SCORE.RESTR.CAVITY>
0

>  <SCORE.RESTR.norm>
0

>  <SCORE.SYSTEM>
-19.0512

>  <SCORE.SYSTEM.CONST>
0

>  <SCORE.SYSTEM.DIHEDRAL>
5.77585

>  <SCORE.SYSTEM.POLAR>
-3.22923

>  <SCORE.SYSTEM.SOLV>
-0.0409736

>  <SCORE.SYSTEM.VDW>
-3.84834

>  <SCORE.SYSTEM.norm>
-1.5876

>  <SCORE.heavy>
12

>  <SCORE.norm>
-3.47913

$$$$
P74301782
 OpenBabel12072022113D
libRbt.so/2013.1/901 2013/11/27
 14 14  0  0  0  0  0  0  0  0999 V2000
  -31.8139   18.0813  -16.2864 C   0  0  0  0  0  0  0  0  0  0  0  0
  -30.8688   18.0264  -15.0906 C   0  0  0  0  0  0  0  0  0  0  0  0
  -29.6519   16.7480  -15.2850 S   0  0  0  0  0  0  0  0  0  0  0  0
  -30.3513   15.4799  -15.3834 O   0  0  0  0  0  0  0  0  0  0  0  0
  -28.6187   16.9467  -14.2876 O   0  0  0  0  0  0  0  0  0  0  0  0
  -28.9636   17.1147  -16.8808 C   0  0  0  0  0  0  0  0  0  0  0  0
  -30.0532   17.2348  -17.9399 C   0  0  0  0  0  0  0  0  0  0  0  0
  -31.1043   18.3260  -17.6403 C   0  0  0  0  0  0  0  0  0  0  0  0
  -32.1480   18.3606  -18.7924 C   0  0  0  0  0  0  0  0  0  0  0  0
  -33.2509   19.2021  -18.4547 O   0  0  0  0  0  0  0  0  0  0  0  0
  -30.4316   19.6361  -17.5605 N   0  0  0  0  0  0  0  0  0  0  0  0
  -32.8940   20.0789  -18.2294 H   0  0  0  0  0  0  0  0  0  0  0  0
  -29.7574   19.5838  -16.7856 H   0  0  0  0  0  0  0  0  0  0  0  0
  -31.0975   20.3390  -17.2294 H   0  0  0  0  0  0  0  0  0  0  0  0
  1  2  1  0  0  0  0
  1  8  1  0  0  0  0
  2  3  1  0  0  0  0
  3  4  2  0  0  0  0
  3  5  2  0  0  0  0
  3  6  1  0  0  0  0
  6  7  1  0  0  0  0
  7  8  1  0  0  0  0
  8  9  1  0  0  0  0
  8 11  1  0  0  0  0
  9 10  1  0  0  0  0
 10 12  1  0  0  0  0
 11 13  1  0  0  0  0
 11 14  1  0  0  0  0
M  END
>  <CHROM.0>
-60.07151245,-62.35662076,-58.06894054,-44.37107094,-59.23255632,-61.08382007
-67.79025698,-60.81492700,-168.89512069

>  <CHROM.1>
47.71812847,59.99007818,55.42015127,-30.56589536,17.65530979,-16.52959156
2.20917662,0.27432026,-1.13860326

>  <Name>
P74301782

>  <RI>
0

>  <Rbt.Current_Directory>
/home/fstefaniak/projects/zuza/docking/adenine/4TZX

>  <Rbt.Executable>
rbdock ($Id: //depot/dev/client3/rdock/2013.1/src/exe/rbdock.cxx#4 $)

>  <Rbt.Library>
libRbt.so (2013.1, Build901 2013/11/27)

>  <Rbt.Parameter_File>
/home/fstefaniak/progs/rDock//data/scripts/dock_solv.prm

>  <Rbt.Receptor>
4tzx.prm

>  <SCORE>
-40.0826

>  <SCORE.INTER>
-18.8839

>  <SCORE.INTER.CONST>
1

>  <SCORE.INTER.POLAR>
-3.68508

>  <SCORE.INTER.ROT>
2

>  <SCORE.INTER.SOLV>
14.4542

>  <SCORE.INTER.VDW>
-10.057

>  <SCORE.INTER.norm>
-1.71672

>  <SCORE.INTRA>
-0.205361

>  <SCORE.INTRA.DIHEDRAL>
-2.10121

>  <SCORE.INTRA.DIHEDRAL.0>
2.64919

>  <SCORE.INTRA.POLAR>
0.0266124

>  <SCORE.INTRA.POLAR.0>
-0.0266124

>  <SCORE.INTRA.REPUL>
0

>  <SCORE.INTRA.REPUL.0>
0

>  <SCORE.INTRA.SOLV>
-0.12141

>  <SCORE.INTRA.SOLV.lig_0>
-13.3028

>  <SCORE.INTRA.VDW>
0.815469

>  <SCORE.INTRA.VDW.0>
-0.0775399

>  <SCORE.INTRA.norm>
-0.0186692

>  <SCORE.RESTR>
0

>  <SCORE.RESTR.CAVITY>
0

>  <SCORE.RESTR.norm>
0

>  <SCORE.SYSTEM>
-20.9934

>  <SCORE.SYSTEM.CONST>
0

>  <SCORE.SYSTEM.DIHEDRAL>
4.1029

>  <SCORE.SYSTEM.POLAR>
-3.02658

>  <SCORE.SYSTEM.SOLV>
0.189046

>  <SCORE.SYSTEM.VDW>
-5.33766

>  <SCORE.SYSTEM.norm>
-1.90849

>  <SCORE.heavy>
11

>  <SCORE.norm>
-3.64388

$$$$
P74301782
 OpenBabel12072022113D
libRbt.so/2013.1/901 2013/11/27
 14 14  0  0  0  0  0  0  0  0999 V2000
  -31.8279   17.9726  -16.1986 C   0  0  0  0  0  0  0  0  0  0  0  0
  -30.8889   17.8609  -15.0019 C   0  0  0  0  0  0  0  0  0  0  0  0
  -29.6351   16.6335  -15.2748 S   0  0  0  0  0  0  0  0  0  0  0  0
  -30.2977   15.3564  -15.4668 O   0  0  0  0  0  0  0  0  0  0  0  0
  -28.6142   16.7909  -14.2577 O   0  0  0  0  0  0  0  0  0  0  0  0
  -28.9477   17.1296  -16.8357 C   0  0  0  0  0  0  0  0  0  0  0  0
  -30.0338   17.2928  -17.8926 C   0  0  0  0  0  0  0  0  0  0  0  0
  -31.1173   18.3309  -17.5264 C   0  0  0  0  0  0  0  0  0  0  0  0
  -32.1544   18.4166  -18.6817 C   0  0  0  0  0  0  0  0  0  0  0  0
  -33.2155   19.3114  -18.3474 O   0  0  0  0  0  0  0  0  0  0  0  0
  -30.4824   19.6504  -17.3503 N   0  0  0  0  0  0  0  0  0  0  0  0
  -32.8159   20.1660  -18.1091 H   0  0  0  0  0  0  0  0  0  0  0  0
  -31.1906   20.2754  -16.9433 H   0  0  0  0  0  0  0  0  0  0  0  0
  -30.3154   20.0709  -18.2682 H   0  0  0  0  0  0  0  0  0  0  0  0
  1  2  1  0  0  0  0
  1  8  1  0  0  0  0
  2  3  1  0  0  0  0
  3  4  2  0  0  0  0
  3  5  2  0  0  0  0
  3  6  1  0  0  0  0
  6  7  1  0  0  0  0
  7  8  1  0  0  0  0
  8  9  1  0  0  0  0
  8 11  1  0  0  0  0
  9 10  1  0  0  0  0
 10 12  1  0  0  0  0
 11 13  1  0  0  0  0
 11 14  1  0  0  0  0
M  END
>  <CHROM.0>
-57.06528679,-64.16849782,-38.44995910,-42.13511111,59.91943401,-52.78412279
-57.36049079,-54.06711449,-168.95397952

>  <CHROM.1>
53.69203780,-48.47275947,54.64522045,-30.56303574,17.61260230,-16.47525938
2.20611410,0.28656604,-1.08730269

>  <Name>
P74301782

>  <RI>
0

>  <Rbt.Current_Directory>
/home/fstefaniak/projects/zuza/docking/adenine/4TZX

>  <Rbt.Executable>
rbdock ($Id: //depot/dev/client3/rdock/2013.1/src/exe/rbdock.cxx#4 $)

>  <Rbt.Library>
libRbt.so (2013.1, Build901 2013/11/27)

>  <Rbt.Parameter_File>
/home/fstefaniak/progs/rDock//data/scripts/dock_solv.prm

>  <Rbt.Receptor>
4tzx.prm

>  <SCORE>
-39.9702

>  <SCORE.INTER>
-20.2066

>  <SCORE.INTER.CONST>
1

>  <SCORE.INTER.POLAR>
-3.22293

>  <SCORE.INTER.ROT>
2

>  <SCORE.INTER.SOLV>
14.6185

>  <SCORE.INTER.VDW>
-12.5342

>  <SCORE.INTER.norm>
-1.83697

>  <SCORE.INTRA>
-0.423335

>  <SCORE.INTRA.DIHEDRAL>
-2.02427

>  <SCORE.INTRA.DIHEDRAL.0>
2.64919

>  <SCORE.INTRA.POLAR>
0.0266124

>  <SCORE.INTRA.POLAR.0>
-0.0266124

>  <SCORE.INTRA.REPUL>
0

>  <SCORE.INTRA.REPUL.0>
0

>  <SCORE.INTRA.SOLV>
0.000694852

>  <SCORE.INTRA.SOLV.lig_0>
-13.3028

>  <SCORE.INTRA.VDW>
0.49797

>  <SCORE.INTRA.VDW.0>
-0.0775399

>  <SCORE.INTRA.norm>
-0.038485

>  <SCORE.RESTR>
0

>  <SCORE.RESTR.CAVITY>
0

>  <SCORE.RESTR.norm>
0

>  <SCORE.SYSTEM>
-19.3402

>  <SCORE.SYSTEM.CONST>
0

>  <SCORE.SYSTEM.DIHEDRAL>
6.53859

>  <SCORE.SYSTEM.POLAR>
-3.34807

>  <SCORE.SYSTEM.SOLV>
0.0493607

>  <SCORE.SYSTEM.VDW>
-3.92924

>  <SCORE.SYSTEM.norm>
-1.7582

>  <SCORE.heavy>
11

>  <SCORE.norm>
-3.63365

$$$$
P74301782
 OpenBabel12072022113D
libRbt.so/2013.1/901 2013/11/27
 14 14  0  0  0  0  0  0  0  0999 V2000
  -31.8853   17.9913  -16.2116 C   0  0  0  0  0  0  0  0  0  0  0  0
  -31.0342   17.9482  -14.9467 C   0  0  0  0  0  0  0  0  0  0  0  0
  -29.7116   16.7728  -15.0958 S   0  0  0  0  0  0  0  0  0  0  0  0
  -30.3021   15.4633  -15.3037 O   0  0  0  0  0  0  0  0  0  0  0  0
  -28.7770   16.9983  -14.0108 O   0  0  0  0  0  0  0  0  0  0  0  0
  -28.9319   17.2651  -16.6139 C   0  0  0  0  0  0  0  0  0  0  0  0
  -29.9423   17.3560  -17.7516 C   0  0  0  0  0  0  0  0  0  0  0  0
  -31.0940   18.3520  -17.4923 C   0  0  0  0  0  0  0  0  0  0  0  0
  -32.0449   18.3655  -18.7224 C   0  0  0  0  0  0  0  0  0  0  0  0
  -33.2261   19.1177  -18.4440 O   0  0  0  0  0  0  0  0  0  0  0  0
  -30.5317   19.7023  -17.3033 N   0  0  0  0  0  0  0  0  0  0  0  0
  -33.0568   20.0393  -18.7062 H   0  0  0  0  0  0  0  0  0  0  0  0
  -31.3001   20.3090  -16.9881 H   0  0  0  0  0  0  0  0  0  0  0  0
  -30.2933   20.1004  -18.2154 H   0  0  0  0  0  0  0  0  0  0  0  0
  1  2  1  0  0  0  0
  1  8  1  0  0  0  0
  2  3  1  0  0  0  0
  3  4  2  0  0  0  0
  3  5  2  0  0  0  0
  3  6  1  0  0  0  0
  6  7  1  0  0  0  0
  7  8  1  0  0  0  0
  8  9  1  0  0  0  0
  8 11  1  0  0  0  0
  9 10  1  0  0  0  0
 10 12  1  0  0  0  0
 11 13  1  0  0  0  0
 11 14  1  0  0  0  0
M  END
>  <CHROM.0>
-59.51807005,-60.90093720,-59.27043617,-43.02026383,-176.27449395,-173.58532007
-64.56156296,-56.65008197,-169.59932151

>  <CHROM.1>
48.26631439,-49.88101741,90.46497593,-30.59561912,17.67325963,-16.38409790
2.16009982,0.14580664,-1.06380565

>  <Name>
P74301782

>  <RI>
0

>  <Rbt.Current_Directory>
/home/fstefaniak/projects/zuza/docking/adenine/4TZX

>  <Rbt.Executable>
rbdock ($Id: //depot/dev/client3/rdock/2013.1/src/exe/rbdock.cxx#4 $)

>  <Rbt.Library>
libRbt.so (2013.1, Build901 2013/11/27)

>  <Rbt.Parameter_File>
/home/fstefaniak/progs/rDock//data/scripts/dock_solv.prm

>  <Rbt.Receptor>
4tzx.prm

>  <SCORE>
-39.6493

>  <SCORE.INTER>
-20.1236

>  <SCORE.INTER.CONST>
1

>  <SCORE.INTER.POLAR>
-3.37006

>  <SCORE.INTER.ROT>
2

>  <SCORE.INTER.SOLV>
14.6435

>  <SCORE.INTER.VDW>
-11.9967

>  <SCORE.INTER.norm>
-1.82942

>  <SCORE.INTRA>
1.33974

>  <SCORE.INTRA.DIHEDRAL>
1.72796

>  <SCORE.INTRA.DIHEDRAL.0>
2.64919

>  <SCORE.INTRA.POLAR>
0.0266124

>  <SCORE.INTRA.POLAR.0>
-0.0266124

>  <SCORE.INTRA.REPUL>
0

>  <SCORE.INTRA.REPUL.0>
0

>  <SCORE.INTRA.SOLV>
-0.00778775

>  <SCORE.INTRA.SOLV.lig_0>
-13.3028

>  <SCORE.INTRA.VDW>
0.389168

>  <SCORE.INTRA.VDW.0>
-0.0775399

>  <SCORE.INTRA.norm>
0.121794

>  <SCORE.RESTR>
0

>  <SCORE.RESTR.CAVITY>
0

>  <SCORE.RESTR.norm>
0

>  <SCORE.SYSTEM>
-20.8654

>  <SCORE.SYSTEM.CONST>
0

>  <SCORE.SYSTEM.DIHEDRAL>
4.29835

>  <SCORE.SYSTEM.POLAR>
-3.04615

>  <SCORE.SYSTEM.SOLV>
-0.0949602

>  <SCORE.SYSTEM.VDW>
-5.15753

>  <SCORE.SYSTEM.norm>
-1.89685

>  <SCORE.heavy>
11

>  <SCORE.norm>
-3.60448

$$$$
P75223345
 OpenBabel12072022113D
libRbt.so/2013.1/901 2013/11/27
 14 14  0  0  0  0  0  0  0  0999 V2000
  -25.4114   13.1519  -16.6704 C   0  0  0  0  0  0  0  0  0  0  0  0
  -26.8570   13.6700  -16.5651 C   0  0  0  0  0  0  0  0  0  0  0  0
  -27.5755   13.4498  -17.9084 C   0  0  0  0  0  0  0  0  0  0  0  0
  -27.5887   12.8498  -15.4837 C   0  0  0  0  0  0  0  0  0  0  0  0
  -26.8927   15.1609  -16.1425 C   0  0  0  0  0  0  0  0  0  0  0  0
  -28.2559   15.7128  -15.9474 C   0  0  0  0  0  0  0  0  0  0  0  0
  -29.1346   15.4632  -14.9996 N   0  0  0  0  0  0  0  0  0  0  0  0
  -30.2403   16.2384  -15.2814 N   0  0  0  0  0  0  0  0  0  0  0  0
  -29.9597   16.8955  -16.3884 C   0  0  0  0  0  0  0  0  0  0  0  0
  -28.7150   16.6027  -16.8808 O   0  0  0  0  0  0  0  0  0  0  0  0
  -30.7879   17.8777  -17.1371 C   0  0  0  0  0  0  0  0  0  0  0  0
  -31.9400   18.3476  -16.3593 N   0  0  0  0  0  0  0  0  0  0  0  0
  -32.5483   17.5498  -16.1702 H   0  0  0  0  0  0  0  0  0  0  0  0
  -32.4846   18.9904  -16.9310 H   0  0  0  0  0  0  0  0  0  0  0  0
  1  2  1  0  0  0  0
  2  3  1  0  0  0  0
  2  4  1  0  0  0  0
  2  5  1  0  0  0  0
  5  6  1  0  0  0  0
  6  7  2  0  0  0  0
  6 10  1  0  0  0  0
  7  8  1  0  0  0  0
  8  9  2  0  0  0  0
  9 10  1  0  0  0  0
  9 11  1  0  0  0  0
 11 12  1  0  0  0  0
 12 13  1  0  0  0  0
 12 14  1  0  0  0  0
M  END
>  <CHROM.0>
-62.89684123,166.89385963,-66.90190935,-40.72954224,-171.29238470,-174.43663464
-63.23494757,-62.58495791,-169.29010474

>  <CHROM.1>
-176.82237593,70.39975655,13.54360056,-62.99631310,-28.63804274,15.45805103
-16.33051802,-0.34069842,0.70664107,-1.03612409

>  <Name>
P75223345

>  <RI>
0

>  <Rbt.Current_Directory>
/home/fstefaniak/projects/zuza/docking/adenine/4TZX

>  <Rbt.Executable>
rbdock ($Id: //depot/dev/client3/rdock/2013.1/src/exe/rbdock.cxx#4 $)

>  <Rbt.Library>
libRbt.so (2013.1, Build901 2013/11/27)

>  <Rbt.Parameter_File>
/home/fstefaniak/progs/rDock//data/scripts/dock_solv.prm

>  <Rbt.Receptor>
4tzx.prm

>  <SCORE>
-45.8371

>  <SCORE.INTER>
-26.2253

>  <SCORE.INTER.CONST>
1

>  <SCORE.INTER.POLAR>
-4.01741

>  <SCORE.INTER.ROT>
4

>  <SCORE.INTER.SOLV>
10.4704

>  <SCORE.INTER.VDW>
-13.8489

>  <SCORE.INTER.norm>
-2.18544

>  <SCORE.INTRA>
0.451836

>  <SCORE.INTRA.DIHEDRAL>
-0.0856252

>  <SCORE.INTRA.DIHEDRAL.0>
2.77766

>  <SCORE.INTRA.POLAR>
0

>  <SCORE.INTRA.POLAR.0>
0

>  <SCORE.INTRA.REPUL>
0

>  <SCORE.INTRA.REPUL.0>
0

>  <SCORE.INTRA.SOLV>
-0.0715699

>  <SCORE.INTRA.SOLV.lig_0>
-8.89599

>  <SCORE.INTRA.VDW>
0.530434

>  <SCORE.INTRA.VDW.0>
-0.603303

>  <SCORE.INTRA.norm>
0.037653

>  <SCORE.RESTR>
0

>  <SCORE.RESTR.CAVITY>
0

>  <SCORE.RESTR.norm>
0

>  <SCORE.SYSTEM>
-20.0637

>  <SCORE.SYSTEM.CONST>
0

>  <SCORE.SYSTEM.DIHEDRAL>
5.87414

>  <SCORE.SYSTEM.POLAR>
-3.05625

>  <SCORE.SYSTEM.SOLV>
-0.125927

>  <SCORE.SYSTEM.VDW>
-5.10434

>  <SCORE.SYSTEM.norm>
-1.67197

>  <SCORE.heavy>
12

>  <SCORE.norm>
-3.81976

$$$$
P75223345
 OpenBabel12072022113D
libRbt.so/2013.1/901 2013/11/27
 14 14  0  0  0  0  0  0  0  0999 V2000
  -26.5589   15.0401  -16.5670 C   0  0  0  0  0  0  0  0  0  0  0  0
  -27.4327   13.7774  -16.6729 C   0  0  0  0  0  0  0  0  0  0  0  0
  -27.4559   13.2959  -18.1347 C   0  0  0  0  0  0  0  0  0  0  0  0
  -26.7944   12.6717  -15.8083 C   0  0  0  0  0  0  0  0  0  0  0  0
  -28.8652   14.0361  -16.1400 C   0  0  0  0  0  0  0  0  0  0  0  0
  -29.2246   15.4698  -16.0120 C   0  0  0  0  0  0  0  0  0  0  0  0
  -29.2722   16.2304  -14.9388 N   0  0  0  0  0  0  0  0  0  0  0  0
  -29.6603   17.4828  -15.3675 N   0  0  0  0  0  0  0  0  0  0  0  0
  -29.8331   17.3914  -16.6705 C   0  0  0  0  0  0  0  0  0  0  0  0
  -29.5862   16.1331  -17.1536 O   0  0  0  0  0  0  0  0  0  0  0  0
  -30.2410   18.4396  -17.6431 C   0  0  0  0  0  0  0  0  0  0  0  0
  -30.0947   17.9997  -19.0353 N   0  0  0  0  0  0  0  0  0  0  0  0
  -29.9989   18.8267  -19.6263 H   0  0  0  0  0  0  0  0  0  0  0  0
  -30.9543   17.5395  -19.3285 H   0  0  0  0  0  0  0  0  0  0  0  0
  1  2  1  0  0  0  0
  2  3  1  0  0  0  0
  2  4  1  0  0  0  0
  2  5  1  0  0  0  0
  5  6  1  0  0  0  0
  6  7  2  0  0  0  0
  6 10  1  0  0  0  0
  7  8  1  0  0  0  0
  8  9  2  0  0  0  0
  9 10  1  0  0  0  0
  9 11  1  0  0  0  0
 11 12  1  0  0  0  0
 12 13  1  0  0  0  0
 12 14  1  0  0  0  0
M  END
>  <CHROM.0>
-58.09560551,-175.13399277,-56.97834980,49.49783150,-56.58103225,-61.64794362
-65.21320281,-58.16258765,-168.33512516

>  <CHROM.1>
16.59470289,-102.00157030,169.99279101,-156.35259318,-28.74632021,15.66747337
-16.72852717,-0.23760760,0.98787173,-1.48119011

>  <Name>
P75223345

>  <RI>
0

>  <Rbt.Current_Directory>
/home/fstefaniak/projects/zuza/docking/adenine/4TZX

>  <Rbt.Executable>
rbdock ($Id: //depot/dev/client3/rdock/2013.1/src/exe/rbdock.cxx#4 $)

>  <Rbt.Library>
libRbt.so (2013.1, Build901 2013/11/27)

>  <Rbt.Parameter_File>
/home/fstefaniak/progs/rDock//data/scripts/dock_solv.prm

>  <Rbt.Receptor>
4tzx.prm

>  <SCORE>
-44.378

>  <SCORE.INTER>
-30.7874

>  <SCORE.INTER.CONST>
1

>  <SCORE.INTER.POLAR>
-3.66857

>  <SCORE.INTER.ROT>
4

>  <SCORE.INTER.SOLV>
11.6048

>  <SCORE.INTER.VDW>
-18.4313

>  <SCORE.INTER.norm>
-2.56561

>  <SCORE.INTRA>
4.15321

>  <SCORE.INTRA.DIHEDRAL>
4.78185

>  <SCORE.INTRA.DIHEDRAL.0>
2.77766

>  <SCORE.INTRA.POLAR>
0

>  <SCORE.INTRA.POLAR.0>
0

>  <SCORE.INTRA.REPUL>
0

>  <SCORE.INTRA.REPUL.0>
0

>  <SCORE.INTRA.SOLV>
0.161324

>  <SCORE.INTRA.SOLV.lig_0>
-8.89599

>  <SCORE.INTRA.VDW>
1.68162

>  <SCORE.INTRA.VDW.0>
-0.603303

>  <SCORE.INTRA.norm>
0.346101

>  <SCORE.RESTR>
0

>  <SCORE.RESTR.CAVITY>
0

>  <SCORE.RESTR.norm>
0

>  <SCORE.SYSTEM>
-17.7439

>  <SCORE.SYSTEM.CONST>
0

>  <SCORE.SYSTEM.DIHEDRAL>
3.61227

>  <SCORE.SYSTEM.POLAR>
-2.51297

>  <SCORE.SYSTEM.SOLV>
0.125344

>  <SCORE.SYSTEM.VDW>
-4.69856

>  <SCORE.SYSTEM.norm>
-1.47866

>  <SCORE.heavy>
12

>  <SCORE.norm>
-3.69817

$$$$
P75223345
 OpenBabel12072022113D
libRbt.so/2013.1/901 2013/11/27
 14 14  0  0  0  0  0  0  0  0999 V2000
  -27.5359   13.3284  -17.8887 C   0  0  0  0  0  0  0  0  0  0  0  0
  -26.8373   13.4814  -16.5258 C   0  0  0  0  0  0  0  0  0  0  0  0
  -27.5480   12.5950  -15.4873 C   0  0  0  0  0  0  0  0  0  0  0  0
  -25.3827   12.9901  -16.6685 C   0  0  0  0  0  0  0  0  0  0  0  0
  -26.8007   14.9637  -16.0736 C   0  0  0  0  0  0  0  0  0  0  0  0
  -28.1357   15.5851  -15.8930 C   0  0  0  0  0  0  0  0  0  0  0  0
  -29.0222   15.4060  -14.9366 N   0  0  0  0  0  0  0  0  0  0  0  0
  -30.0909   16.2238  -15.2399 N   0  0  0  0  0  0  0  0  0  0  0  0
  -29.7831   16.8333  -16.3667 C   0  0  0  0  0  0  0  0  0  0  0  0
  -28.5551   16.4672  -16.8522 O   0  0  0  0  0  0  0  0  0  0  0  0
  -30.5662   17.8306  -17.1434 C   0  0  0  0  0  0  0  0  0  0  0  0
  -30.1606   17.8873  -18.5524 N   0  0  0  0  0  0  0  0  0  0  0  0
  -30.2394   18.8538  -18.8720 H   0  0  0  0  0  0  0  0  0  0  0  0
  -30.8225   17.3497  -19.1087 H   0  0  0  0  0  0  0  0  0  0  0  0
  1  2  1  0  0  0  0
  2  3  1  0  0  0  0
  2  4  1  0  0  0  0
  2  5  1  0  0  0  0
  5  6  1  0  0  0  0
  6  7  2  0  0  0  0
  6 10  1  0  0  0  0
  7  8  1  0  0  0  0
  8  9  2  0  0  0  0
  9 10  1  0  0  0  0
  9 11  1  0  0  0  0
 11 12  1  0  0  0  0
 12 13  1  0  0  0  0
 12 14  1  0  0  0  0
M  END
>  <CHROM.0>
-58.17200482,177.75560172,59.73526613,-42.38571803,-57.82787472,-176.21970385
55.35655386,178.72007332,-167.97372067

>  <CHROM.1>
61.06356523,73.55203964,-157.76085435,-145.01490535,-28.37217284,15.30426733
-16.51479556,-0.41117214,0.80484012,-1.18990249

>  <Name>
P75223345

>  <RI>
0

>  <Rbt.Current_Directory>
/home/fstefaniak/projects/zuza/docking/adenine/4TZX

>  <Rbt.Executable>
rbdock ($Id: //depot/dev/client3/rdock/2013.1/src/exe/rbdock.cxx#4 $)

>  <Rbt.Library>
libRbt.so (2013.1, Build901 2013/11/27)

>  <Rbt.Parameter_File>
/home/fstefaniak/progs/rDock//data/scripts/dock_solv.prm

>  <Rbt.Receptor>
4tzx.prm

>  <SCORE>
-43.8042

>  <SCORE.INTER>
-26.0741

>  <SCORE.INTER.CONST>
1

>  <SCORE.INTER.POLAR>
-3.76429

>  <SCORE.INTER.ROT>
4

>  <SCORE.INTER.SOLV>
10.5336

>  <SCORE.INTER.VDW>
-14.613

>  <SCORE.INTER.norm>
-2.17285

>  <SCORE.INTRA>
0.873167

>  <SCORE.INTRA.DIHEDRAL>
1.52896

>  <SCORE.INTRA.DIHEDRAL.0>
2.77766

>  <SCORE.INTRA.POLAR>
0

>  <SCORE.INTRA.POLAR.0>
0

>  <SCORE.INTRA.REPUL>
0

>  <SCORE.INTRA.REPUL.0>
0

>  <SCORE.INTRA.SOLV>
0.0465097

>  <SCORE.INTRA.SOLV.lig_0>
-8.89599

>  <SCORE.INTRA.VDW>
0.0854324

>  <SCORE.INTRA.VDW.0>
-0.603303

>  <SCORE.INTRA.norm>
0.0727639

>  <SCORE.RESTR>
0

>  <SCORE.RESTR.CAVITY>
0

>  <SCORE.RESTR.norm>
0

>  <SCORE.SYSTEM>
-18.6032

>  <SCORE.SYSTEM.CONST>
0

>  <SCORE.SYSTEM.DIHEDRAL>
4.37568

>  <SCORE.SYSTEM.POLAR>
-3.04927

>  <SCORE.SYSTEM.SOLV>
-0.188163

>  <SCORE.SYSTEM.VDW>
-3.63374

>  <SCORE.SYSTEM.norm>
-1.55026

>  <SCORE.heavy>
12

>  <SCORE.norm>
-3.65035

$$$$
P75337551
 OpenBabel12072022113D
libRbt.so/2013.1/901 2013/11/27
 14 14  0  0  0  0  0  0  0  0999 V2000
  -31.4099   17.9234  -13.9602 C   0  0  0  0  0  0  0  0  0  0  0  0
  -30.1541   17.2949  -14.1928 O   0  0  0  0  0  0  0  0  0  0  0  0
  -29.6176   17.6078  -15.4843 C   0  0  1  0  0  0  0  0  0  0  0  0
  -28.1521   17.1645  -15.4985 C   0  0  0  0  0  0  0  0  0  0  0  0
  -28.1522   15.7075  -15.9668 C   0  0  0  0  0  0  0  0  0  0  0  0
  -29.5767   15.3925  -16.4161 C   0  0  0  0  0  0  0  0  0  0  0  0
  -30.2577   16.7479  -16.5920 C   0  0  2  0  0  0  0  0  0  0  0  0
  -30.0327   17.2835  -17.9293 N   0  0  0  0  0  0  0  0  0  0  0  0
  -30.6487   18.4362  -18.3171 C   0  0  0  0  0  0  0  0  0  0  0  0
  -31.0082   18.7058  -19.4521 O   0  0  0  0  0  0  0  0  0  0  0  0
  -30.8310   19.2902  -17.2796 N   0  0  0  0  0  0  0  0  0  0  0  0
  -29.1293   17.1263  -18.3536 H   0  0  0  0  0  0  0  0  0  0  0  0
  -30.0447   19.8806  -17.0491 H   0  0  0  0  0  0  0  0  0  0  0  0
  -31.7176   19.7781  -17.3243 H   0  0  0  0  0  0  0  0  0  0  0  0
  1  2  1  0  0  0  0
  3  2  1  1  0  0  0
  3  4  1  0  0  0  0
  3  7  1  0  0  0  0
  4  5  1  0  0  0  0
  5  6  1  0  0  0  0
  6  7  1  0  0  0  0
  7  8  1  6  0  0  0
  8  9  1  0  0  0  0
  8 12  1  0  0  0  0
  9 10  2  0  0  0  0
  9 11  1  0  0  0  0
 11 13  1  0  0  0  0
 11 14  1  0  0  0  0
M  END
>  <CHROM.0>
-170.10517335,53.65148903,61.08232727,-41.70457864,-58.25244866,-64.84127014
55.04331307,-62.63787985,-168.99034391

>  <CHROM.1>
166.92805387,-69.77277145,-147.99571818,84.00959187,-30.00746173,17.45058879
-16.45842401,1.10588759,-0.83622166,1.67824225

>  <Name>
P75337551

>  <RI>
0

>  <Rbt.Current_Directory>
/home/fstefaniak/projects/zuza/docking/adenine/4TZX

>  <Rbt.Executable>
rbdock ($Id: //depot/dev/client3/rdock/2013.1/src/exe/rbdock.cxx#4 $)

>  <Rbt.Library>
libRbt.so (2013.1, Build901 2013/11/27)

>  <Rbt.Parameter_File>
/home/fstefaniak/progs/rDock//data/scripts/dock_solv.prm

>  <Rbt.Receptor>
4tzx.prm

>  <SCORE>
-48.4939

>  <SCORE.INTER>
-34.4166

>  <SCORE.INTER.CONST>
1

>  <SCORE.INTER.POLAR>
-5.33172

>  <SCORE.INTER.ROT>
4

>  <SCORE.INTER.SOLV>
13.2964

>  <SCORE.INTER.VDW>
-15.8708

>  <SCORE.INTER.norm>
-3.12878

>  <SCORE.INTRA>
0.981388

>  <SCORE.INTRA.DIHEDRAL>
-0.275909

>  <SCORE.INTRA.DIHEDRAL.0>
2.53075

>  <SCORE.INTRA.POLAR>
0

>  <SCORE.INTRA.POLAR.0>
0

>  <SCORE.INTRA.REPUL>
0

>  <SCORE.INTRA.REPUL.0>
0

>  <SCORE.INTRA.SOLV>
0.686106

>  <SCORE.INTRA.SOLV.lig_0>
-13.4259

>  <SCORE.INTRA.VDW>
0.77629

>  <SCORE.INTRA.VDW.0>
-0.80591

>  <SCORE.INTRA.norm>
0.0892171

>  <SCORE.RESTR>
0

>  <SCORE.RESTR.CAVITY>
0

>  <SCORE.RESTR.norm>
0

>  <SCORE.SYSTEM>
-15.0587

>  <SCORE.SYSTEM.CONST>
0

>  <SCORE.SYSTEM.DIHEDRAL>
5.04542

>  <SCORE.SYSTEM.POLAR>
-2.48548

>  <SCORE.SYSTEM.SOLV>
0.144112

>  <SCORE.SYSTEM.VDW>
-3.48404

>  <SCORE.SYSTEM.norm>
-1.36897

>  <SCORE.heavy>
11

>  <SCORE.norm>
-4.40854

$$$$
P75337551
 OpenBabel12072022113D
libRbt.so/2013.1/901 2013/11/27
 14 14  0  0  0  0  0  0  0  0999 V2000
  -31.3399   17.9682  -14.0185 C   0  0  0  0  0  0  0  0  0  0  0  0
  -30.0815   17.3410  -14.2403 O   0  0  0  0  0  0  0  0  0  0  0  0
  -29.5496   17.6281  -15.5397 C   0  0  1  0  0  0  0  0  0  0  0  0
  -28.0976   17.1426  -15.5650 C   0  0  0  0  0  0  0  0  0  0  0  0
  -28.1445   15.6826  -16.0213 C   0  0  0  0  0  0  0  0  0  0  0  0
  -29.5821   15.4053  -16.4536 C   0  0  0  0  0  0  0  0  0  0  0  0
  -30.2255   16.7783  -16.6338 C   0  0  2  0  0  0  0  0  0  0  0  0
  -29.9990   17.2966  -17.9776 N   0  0  0  0  0  0  0  0  0  0  0  0
  -30.5990   18.4547  -18.3742 C   0  0  0  0  0  0  0  0  0  0  0  0
  -30.9291   18.7323  -19.5163 O   0  0  0  0  0  0  0  0  0  0  0  0
  -30.8019   19.3044  -17.3369 N   0  0  0  0  0  0  0  0  0  0  0  0
  -29.1003   17.1209  -18.4047 H   0  0  0  0  0  0  0  0  0  0  0  0
  -30.0180   19.8886  -17.0836 H   0  0  0  0  0  0  0  0  0  0  0  0
  -31.6840   19.7983  -17.4012 H   0  0  0  0  0  0  0  0  0  0  0  0
  1  2  1  0  0  0  0
  3  2  1  1  0  0  0
  3  4  1  0  0  0  0
  3  7  1  0  0  0  0
  4  5  1  0  0  0  0
  5  6  1  0  0  0  0
  6  7  1  0  0  0  0
  7  8  1  6  0  0  0
  8  9  1  0  0  0  0
  8 12  1  0  0  0  0
  9 10  2  0  0  0  0
  9 11  1  0  0  0  0
 11 13  1  0  0  0  0
 11 14  1  0  0  0  0
M  END
>  <CHROM.0>
-57.40027906,-62.21376805,-71.83450851,-43.85493920,-175.96708541,-60.56357631
-169.19683375,-59.02444314,-167.64540353

>  <CHROM.1>
169.07326770,-70.59611328,-149.98969553,83.95310519,-29.96228667,17.46732083
-16.51202798,1.09902787,-0.85244701,1.66968630

>  <Name>
P75337551

>  <RI>
0

>  <Rbt.Current_Directory>
/home/fstefaniak/projects/zuza/docking/adenine/4TZX

>  <Rbt.Executable>
rbdock ($Id: //depot/dev/client3/rdock/2013.1/src/exe/rbdock.cxx#4 $)

>  <Rbt.Library>
libRbt.so (2013.1, Build901 2013/11/27)

>  <Rbt.Parameter_File>
/home/fstefaniak/progs/rDock//data/scripts/dock_solv.prm

>  <Rbt.Receptor>
4tzx.prm

>  <SCORE>
-47.9256

>  <SCORE.INTER>
-28.2369

>  <SCORE.INTER.CONST>
1

>  <SCORE.INTER.POLAR>
-4.13973

>  <SCORE.INTER.ROT>
4

>  <SCORE.INTER.SOLV>
13.4547

>  <SCORE.INTER.VDW>
-15.7771

>  <SCORE.INTER.norm>
-2.56699

>  <SCORE.INTRA>
0.933056

>  <SCORE.INTRA.DIHEDRAL>
-0.509652

>  <SCORE.INTRA.DIHEDRAL.0>
2.53075

>  <SCORE.INTRA.POLAR>
0

>  <SCORE.INTRA.POLAR.0>
0

>  <SCORE.INTRA.REPUL>
0

>  <SCORE.INTRA.REPUL.0>
0

>  <SCORE.INTRA.SOLV>
0.680227

>  <SCORE.INTRA.SOLV.lig_0>
-13.4259

>  <SCORE.INTRA.VDW>
0.847768

>  <SCORE.INTRA.VDW.0>
-0.80591

>  <SCORE.INTRA.norm>
0.0848233

>  <SCORE.RESTR>
0

>  <SCORE.RESTR.CAVITY>
0

>  <SCORE.RESTR.norm>
0

>  <SCORE.SYSTEM>
-20.6218

>  <SCORE.SYSTEM.CONST>
0

>  <SCORE.SYSTEM.DIHEDRAL>
5.24127

>  <SCORE.SYSTEM.POLAR>
-3.03316

>  <SCORE.SYSTEM.SOLV>
-0.022415

>  <SCORE.SYSTEM.VDW>
-5.37692

>  <SCORE.SYSTEM.norm>
-1.87471

>  <SCORE.heavy>
11

>  <SCORE.norm>
-4.35688

$$$$
P75337551
 OpenBabel12072022113D
libRbt.so/2013.1/901 2013/11/27
 14 14  0  0  0  0  0  0  0  0999 V2000
  -31.4896   17.9168  -13.9192 C   0  0  0  0  0  0  0  0  0  0  0  0
  -30.2277   17.3110  -14.1777 O   0  0  0  0  0  0  0  0  0  0  0  0
  -29.6999   17.6743  -15.4596 C   0  0  1  0  0  0  0  0  0  0  0  0
  -28.2144   17.3030  -15.4726 C   0  0  0  0  0  0  0  0  0  0  0  0
  -28.1410   15.8570  -15.9683 C   0  0  0  0  0  0  0  0  0  0  0  0
  -29.5460   15.4819  -16.4327 C   0  0  0  0  0  0  0  0  0  0  0  0
  -30.2912   16.8057  -16.5875 C   0  0  2  0  0  0  0  0  0  0  0  0
  -30.0850   17.3771  -17.9129 N   0  0  0  0  0  0  0  0  0  0  0  0
  -30.6652   18.5657  -18.2432 C   0  0  0  0  0  0  0  0  0  0  0  0
  -30.4552   19.6377  -17.6983 O   0  0  0  0  0  0  0  0  0  0  0  0
  -31.5340   18.4387  -19.2768 N   0  0  0  0  0  0  0  0  0  0  0  0
  -29.2019   17.1988  -18.3704 H   0  0  0  0  0  0  0  0  0  0  0  0
  -31.1924   18.7322  -20.1806 H   0  0  0  0  0  0  0  0  0  0  0  0
  -32.0082   17.5436  -19.2828 H   0  0  0  0  0  0  0  0  0  0  0  0
  1  2  1  0  0  0  0
  3  2  1  1  0  0  0
  3  4  1  0  0  0  0
  3  7  1  0  0  0  0
  4  5  1  0  0  0  0
  5  6  1  0  0  0  0
  6  7  1  0  0  0  0
  7  8  1  6  0  0  0
  8  9  1  0  0  0  0
  8 12  1  0  0  0  0
  9 10  2  0  0  0  0
  9 11  1  0  0  0  0
 11 13  1  0  0  0  0
 11 14  1  0  0  0  0
M  END
>  <CHROM.0>
-42.83936949,58.01916176,-63.54287692,-42.00886362,-54.73466922,-63.59017856
-68.55268731,-58.03180551,-168.72791327

>  <CHROM.1>
164.55125363,-64.20933979,61.90818246,-101.19423492,-30.05566076,17.51118010
-16.47483365,1.09572170,-0.80837724,1.65849665

>  <Name>
P75337551

>  <RI>
0

>  <Rbt.Current_Directory>
/home/fstefaniak/projects/zuza/docking/adenine/4TZX

>  <Rbt.Executable>
rbdock ($Id: //depot/dev/client3/rdock/2013.1/src/exe/rbdock.cxx#4 $)

>  <Rbt.Library>
libRbt.so (2013.1, Build901 2013/11/27)

>  <Rbt.Parameter_File>
/home/fstefaniak/progs/rDock//data/scripts/dock_solv.prm

>  <Rbt.Receptor>
4tzx.prm

>  <SCORE>
-47.486

>  <SCORE.INTER>
-27.8834

>  <SCORE.INTER.CONST>
1

>  <SCORE.INTER.POLAR>
-4.32021

>  <SCORE.INTER.ROT>
4

>  <SCORE.INTER.SOLV>
13.5059

>  <SCORE.INTER.VDW>
-14.9568

>  <SCORE.INTER.norm>
-2.53485

>  <SCORE.INTRA>
-0.0392991

>  <SCORE.INTRA.DIHEDRAL>
0.104006

>  <SCORE.INTRA.DIHEDRAL.0>
2.53075

>  <SCORE.INTRA.POLAR>
0

>  <SCORE.INTRA.POLAR.0>
0

>  <SCORE.INTRA.REPUL>
0

>  <SCORE.INTRA.REPUL.0>
0

>  <SCORE.INTRA.SOLV>
0.125029

>  <SCORE.INTRA.SOLV.lig_0>
-13.4259

>  <SCORE.INTRA.VDW>
-0.153817

>  <SCORE.INTRA.VDW.0>
-0.80591

>  <SCORE.INTRA.norm>
-0.00357264

>  <SCORE.RESTR>
0

>  <SCORE.RESTR.CAVITY>
0

>  <SCORE.RESTR.norm>
0

>  <SCORE.SYSTEM>
-19.5633

>  <SCORE.SYSTEM.CONST>
0

>  <SCORE.SYSTEM.DIHEDRAL>
5.99105

>  <SCORE.SYSTEM.POLAR>
-3.21874

>  <SCORE.SYSTEM.SOLV>
0.280251

>  <SCORE.SYSTEM.VDW>
-4.40352

>  <SCORE.SYSTEM.norm>
-1.77848

>  <SCORE.heavy>
11

>  <SCORE.norm>
-4.31691

$$$$
P75363919
 OpenBabel12072022113D
libRbt.so/2013.1/901 2013/11/27
 13 12  0  0  0  0  0  0  0  0999 V2000
  -25.1117   16.5687  -16.7224 C   0  0  0  0  0  0  0  0  0  0  0  0
  -26.0479   15.5585  -16.0835 C   0  0  0  0  0  0  0  0  0  0  0  0
  -27.3872   15.6411  -16.6296 N   0  0  0  0  0  0  0  0  0  0  0  0
  -28.2965   16.5364  -16.1322 C   0  0  0  0  0  0  0  0  0  0  0  0
  -28.2214   17.0780  -15.0388 O   0  0  0  0  0  0  0  0  0  0  0  0
  -29.3192   16.7494  -17.0223 N   0  0  0  0  0  0  0  0  0  0  0  0
  -30.0225   18.0300  -17.0567 C   0  0  1  0  0  0  0  0  0  0  0  0
  -30.3385   18.4104  -18.5035 C   0  0  0  0  0  0  0  0  0  0  0  0
  -31.2667   18.0634  -16.1491 C   0  0  0  0  0  0  0  0  0  0  0  0
  -30.9499   17.7157  -14.7581 C   0  0  0  0  0  0  0  0  0  0  0  0
  -30.6769   17.4287  -13.6673 N   0  0  0  0  0  0  0  0  0  0  0  0
  -27.5000   15.4110  -17.6059 H   0  0  0  0  0  0  0  0  0  0  0  0
  -29.8471   15.9190  -17.2598 H   0  0  0  0  0  0  0  0  0  0  0  0
  1  2  1  0  0  0  0
  2  3  1  0  0  0  0
  3  4  1  0  0  0  0
  3 12  1  0  0  0  0
  4  5  2  0  0  0  0
  4  6  1  0  0  0  0
  6  7  1  0  0  0  0
  6 13  1  0  0  0  0
  7  8  1  6  0  0  0
  7  9  1  0  0  0  0
  9 10  1  0  0  0  0
 10 11  3  0  0  0  0
M  END
>  <CHROM.0>
-57.28274200,-173.40950651,-48.41644954,-43.08469770,-170.70730333,-55.82645920
-66.03652024,-172.75870017,-166.72876762

>  <CHROM.1>
-85.32990099,-19.16962334,-150.72294736,141.48387010,55.42182016,-28.82334379
17.05071517,-16.19438243,0.03335182,0.38784846,-1.38817175

>  <Name>
P75363919

>  <RI>
0

>  <Rbt.Current_Directory>
/home/fstefaniak/projects/zuza/docking/adenine/4TZX

>  <Rbt.Executable>
rbdock ($Id: //depot/dev/client3/rdock/2013.1/src/exe/rbdock.cxx#4 $)

>  <Rbt.Library>
libRbt.so (2013.1, Build901 2013/11/27)

>  <Rbt.Parameter_File>
/home/fstefaniak/progs/rDock//data/scripts/dock_solv.prm

>  <Rbt.Receptor>
4tzx.prm

>  <SCORE>
-50.4702

>  <SCORE.INTER>
-29.2251

>  <SCORE.INTER.CONST>
1

>  <SCORE.INTER.POLAR>
-3.40989

>  <SCORE.INTER.ROT>
5

>  <SCORE.INTER.SOLV>
11.752

>  <SCORE.INTER.VDW>
-18.9678

>  <SCORE.INTER.norm>
-2.65683

>  <SCORE.INTRA>
-0.797908

>  <SCORE.INTRA.DIHEDRAL>
-0.389104

>  <SCORE.INTRA.DIHEDRAL.0>
2.92986

>  <SCORE.INTRA.POLAR>
0

>  <SCORE.INTRA.POLAR.0>
0

>  <SCORE.INTRA.REPUL>
0

>  <SCORE.INTRA.REPUL.0>
0

>  <SCORE.INTRA.SOLV>
0.501112

>  <SCORE.INTRA.SOLV.lig_0>
-14.533

>  <SCORE.INTRA.VDW>
-0.853912

>  <SCORE.INTRA.VDW.0>
-0.125135

>  <SCORE.INTRA.norm>
-0.0725371

>  <SCORE.RESTR>
0

>  <SCORE.RESTR.CAVITY>
0

>  <SCORE.RESTR.norm>
0

>  <SCORE.SYSTEM>
-20.4472

>  <SCORE.SYSTEM.CONST>
0

>  <SCORE.SYSTEM.DIHEDRAL>
5.87441

>  <SCORE.SYSTEM.POLAR>
-3.17252

>  <SCORE.SYSTEM.SOLV>
-0.127462

>  <SCORE.SYSTEM.VDW>
-4.97204

>  <SCORE.SYSTEM.norm>
-1.85883

>  <SCORE.heavy>
11

>  <SCORE.norm>
-4.5882

$$$$
P75363919
 OpenBabel12072022113D
libRbt.so/2013.1/901 2013/11/27
 13 12  0  0  0  0  0  0  0  0999 V2000
  -25.2284   16.4255  -16.7424 C   0  0  0  0  0  0  0  0  0  0  0  0
  -26.1805   15.4164  -16.1257 C   0  0  0  0  0  0  0  0  0  0  0  0
  -27.5217   15.5417  -16.6591 N   0  0  0  0  0  0  0  0  0  0  0  0
  -28.3709   16.5164  -16.2071 C   0  0  0  0  0  0  0  0  0  0  0  0
  -28.2571   17.1076  -15.1431 O   0  0  0  0  0  0  0  0  0  0  0  0
  -29.3826   16.7472  -17.1054 N   0  0  0  0  0  0  0  0  0  0  0  0
  -30.0912   18.0252  -17.1177 C   0  0  1  0  0  0  0  0  0  0  0  0
  -30.3702   18.4508  -18.5594 C   0  0  0  0  0  0  0  0  0  0  0  0
  -31.3595   18.0239  -16.2434 C   0  0  0  0  0  0  0  0  0  0  0  0
  -31.0846   17.5981  -14.8653 C   0  0  0  0  0  0  0  0  0  0  0  0
  -30.8447   17.2495  -13.7847 N   0  0  0  0  0  0  0  0  0  0  0  0
  -27.6629   15.2588  -17.6176 H   0  0  0  0  0  0  0  0  0  0  0  0
  -29.9033   15.9207  -17.3707 H   0  0  0  0  0  0  0  0  0  0  0  0
  1  2  1  0  0  0  0
  2  3  1  0  0  0  0
  3  4  1  0  0  0  0
  3 12  1  0  0  0  0
  4  5  2  0  0  0  0
  4  6  1  0  0  0  0
  6  7  1  0  0  0  0
  6 13  1  0  0  0  0
  7  8  1  6  0  0  0
  7  9  1  0  0  0  0
  9 10  1  0  0  0  0
 10 11  3  0  0  0  0
M  END
>  <CHROM.0>
-62.19216481,-175.30596354,-60.65594349,-43.53044061,-56.29467386,-61.90975602
-63.13309243,-179.42056500,-167.33505063

>  <CHROM.1>
-79.70788802,-20.11282589,-156.61911503,140.60906494,53.88774921,-28.91816625
16.99000680,-16.26556873,-0.00521420,0.39753394,-1.33374750

>  <Name>
P75363919

>  <RI>
0

>  <Rbt.Current_Directory>
/home/fstefaniak/projects/zuza/docking/adenine/4TZX

>  <Rbt.Executable>
rbdock ($Id: //depot/dev/client3/rdock/2013.1/src/exe/rbdock.cxx#4 $)

>  <Rbt.Library>
libRbt.so (2013.1, Build901 2013/11/27)

>  <Rbt.Parameter_File>
/home/fstefaniak/progs/rDock//data/scripts/dock_solv.prm

>  <Rbt.Receptor>
4tzx.prm

>  <SCORE>
-50.2928

>  <SCORE.INTER>
-28.6703

>  <SCORE.INTER.CONST>
1

>  <SCORE.INTER.POLAR>
-3.35641

>  <SCORE.INTER.ROT>
5

>  <SCORE.INTER.SOLV>
11.743

>  <SCORE.INTER.VDW>
-18.7731

>  <SCORE.INTER.norm>
-2.60639

>  <SCORE.INTRA>
-0.8467

>  <SCORE.INTRA.DIHEDRAL>
-0.390215

>  <SCORE.INTRA.DIHEDRAL.0>
2.92986

>  <SCORE.INTRA.POLAR>
0

>  <SCORE.INTRA.POLAR.0>
0

>  <SCORE.INTRA.REPUL>
0

>  <SCORE.INTRA.REPUL.0>
0

>  <SCORE.INTRA.SOLV>
0.505735

>  <SCORE.INTRA.SOLV.lig_0>
-14.533

>  <SCORE.INTRA.VDW>
-0.90446

>  <SCORE.INTRA.VDW.0>
-0.125135

>  <SCORE.INTRA.norm>
-0.0769727

>  <SCORE.RESTR>
0

>  <SCORE.RESTR.CAVITY>
0

>  <SCORE.RESTR.norm>
0

>  <SCORE.SYSTEM>
-20.7759

>  <SCORE.SYSTEM.CONST>
0

>  <SCORE.SYSTEM.DIHEDRAL>
4.30178

>  <SCORE.SYSTEM.POLAR>
-3.04287

>  <SCORE.SYSTEM.SOLV>
0.035962

>  <SCORE.SYSTEM.VDW>
-5.1536

>  <SCORE.SYSTEM.norm>
-1.88871

>  <SCORE.heavy>
11

>  <SCORE.norm>
-4.57207

$$$$
P75363919
 OpenBabel12072022113D
libRbt.so/2013.1/901 2013/11/27
 13 12  0  0  0  0  0  0  0  0999 V2000
  -26.6017   13.8767  -16.9774 C   0  0  0  0  0  0  0  0  0  0  0  0
  -28.1072   14.0296  -17.1017 C   0  0  0  0  0  0  0  0  0  0  0  0
  -28.6610   14.8255  -16.0254 N   0  0  0  0  0  0  0  0  0  0  0  0
  -28.6911   16.1925  -16.1041 C   0  0  0  0  0  0  0  0  0  0  0  0
  -28.0716   16.9510  -15.3723 O   0  0  0  0  0  0  0  0  0  0  0  0
  -29.5182   16.6120  -17.1159 N   0  0  0  0  0  0  0  0  0  0  0  0
  -30.0897   17.9569  -17.1020 C   0  0  1  0  0  0  0  0  0  0  0  0
  -30.4306   18.3913  -18.5277 C   0  0  0  0  0  0  0  0  0  0  0  0
  -31.2820   18.0995  -16.1371 C   0  0  0  0  0  0  0  0  0  0  0  0
  -30.9291   17.7347  -14.7592 C   0  0  0  0  0  0  0  0  0  0  0  0
  -30.6292   17.4322  -13.6797 N   0  0  0  0  0  0  0  0  0  0  0  0
  -29.4023   14.4096  -15.4812 H   0  0  0  0  0  0  0  0  0  0  0  0
  -30.0663   15.8749  -17.5411 H   0  0  0  0  0  0  0  0  0  0  0  0
  1  2  1  0  0  0  0
  2  3  1  0  0  0  0
  3  4  1  0  0  0  0
  3 12  1  0  0  0  0
  4  5  2  0  0  0  0
  4  6  1  0  0  0  0
  6  7  1  0  0  0  0
  6 13  1  0  0  0  0
  7  8  1  6  0  0  0
  7  9  1  0  0  0  0
  9 10  1  0  0  0  0
 10 11  3  0  0  0  0
M  END
>  <CHROM.0>
-56.52812182,177.53155406,-70.68831737,-42.88621062,-55.66757791,-54.89523790
-164.29929101,-55.78555335,-168.37295392

>  <CHROM.1>
85.31539377,-115.00495524,157.77547126,155.36320708,57.03985535,-29.32563344
16.51631354,-16.29150980,0.04649374,0.86001840,-1.43179583

>  <Name>
P75363919

>  <RI>
0

>  <Rbt.Current_Directory>
/home/fstefaniak/projects/zuza/docking/adenine/4TZX

>  <Rbt.Executable>
rbdock ($Id: //depot/dev/client3/rdock/2013.1/src/exe/rbdock.cxx#4 $)

>  <Rbt.Library>
libRbt.so (2013.1, Build901 2013/11/27)

>  <Rbt.Parameter_File>
/home/fstefaniak/progs/rDock//data/scripts/dock_solv.prm

>  <Rbt.Receptor>
4tzx.prm

>  <SCORE>
-49.4973

>  <SCORE.INTER>
-28.756

>  <SCORE.INTER.CONST>
1

>  <SCORE.INTER.POLAR>
-3.16998

>  <SCORE.INTER.ROT>
5

>  <SCORE.INTER.SOLV>
11.825

>  <SCORE.INTER.VDW>
-19.479

>  <SCORE.INTER.norm>
-2.61418

>  <SCORE.INTRA>
-0.687383

>  <SCORE.INTRA.DIHEDRAL>
0.248735

>  <SCORE.INTRA.DIHEDRAL.0>
2.92986

>  <SCORE.INTRA.POLAR>
0

>  <SCORE.INTRA.POLAR.0>
0

>  <SCORE.INTRA.REPUL>
0

>  <SCORE.INTRA.REPUL.0>
0

>  <SCORE.INTRA.SOLV>
0.798206

>  <SCORE.INTRA.SOLV.lig_0>
-14.533

>  <SCORE.INTRA.VDW>
-1.21085

>  <SCORE.INTRA.VDW.0>
-0.125135

>  <SCORE.INTRA.norm>
-0.0624894

>  <SCORE.RESTR>
0

>  <SCORE.RESTR.CAVITY>
0

>  <SCORE.RESTR.norm>
0

>  <SCORE.SYSTEM>
-20.054

>  <SCORE.SYSTEM.CONST>
0

>  <SCORE.SYSTEM.DIHEDRAL>
5.9702

>  <SCORE.SYSTEM.POLAR>
-3.09946

>  <SCORE.SYSTEM.SOLV>
0.167755

>  <SCORE.SYSTEM.VDW>
-5.08377

>  <SCORE.SYSTEM.norm>
-1.82309

>  <SCORE.heavy>
11

>  <SCORE.norm>
-4.49976

$$$$
P76310038
 OpenBabel12072022113D
libRbt.so/2013.1/901 2013/11/27
 16 16  0  0  0  0  0  0  0  0999 V2000
  -29.7213   17.6836  -18.3068 C   0  0  0  0  0  0  0  0  0  0  0  0
  -30.9029   18.2745  -18.7622 C   0  0  0  0  0  0  0  0  0  0  0  0
  -31.9450   18.4982  -17.8686 C   0  0  0  0  0  0  0  0  0  0  0  0
  -31.8230   18.1472  -16.5303 C   0  0  0  0  0  0  0  0  0  0  0  0
  -30.6407   17.5634  -16.0737 C   0  0  0  0  0  0  0  0  0  0  0  0
  -29.5785   17.3154  -16.9588 C   0  0  0  0  0  0  0  0  0  0  0  0
  -28.3040   16.6576  -16.4733 C   0  0  2  0  0  0  0  0  0  0  0  0
  -28.4062   15.1199  -16.3564 C   0  0  0  0  0  0  0  0  0  0  0  0
  -27.5246   14.3767  -16.7880 O   0  0  0  0  0  0  0  0  0  0  0  0
  -29.5486   14.5983  -15.8196 N   0  0  0  0  0  0  0  0  0  0  0  0
  -27.9523   17.2352  -15.2181 O   0  0  0  0  0  0  0  0  0  0  0  0
  -33.1150   19.0706  -18.2706 O   0  0  0  0  0  0  0  0  0  0  0  0
  -29.5383   13.6911  -15.3687 H   0  0  0  0  0  0  0  0  0  0  0  0
  -30.4164   14.8845  -16.2554 H   0  0  0  0  0  0  0  0  0  0  0  0
  -27.6789   18.1519  -15.4203 H   0  0  0  0  0  0  0  0  0  0  0  0
  -33.0102   19.3839  -19.1838 H   0  0  0  0  0  0  0  0  0  0  0  0
  1  2  2  0  0  0  0
  1  6  1  0  0  0  0
  2  3  1  0  0  0  0
  3  4  2  0  0  0  0
  3 12  1  0  0  0  0
  4  5  1  0  0  0  0
  5  6  2  0  0  0  0
  7  8  1  1  0  0  0
  7 11  1  0  0  0  0
  7  6  1  0  0  0  0
  8  9  2  0  0  0  0
  8 10  1  0  0  0  0
 10 13  1  0  0  0  0
 10 14  1  0  0  0  0
 11 15  1  0  0  0  0
 12 16  1  0  0  0  0
M  END
>  <CHROM.0>
-62.03010004,-65.76020828,-61.17506620,-43.17818884,-59.53527722,-61.16407334
-61.99231192,-59.88902213,-169.61722966

>  <CHROM.1>
-8.34266846,134.04160975,-69.39656994,-98.99062565,-154.39928102,-29.93463237
17.01126747,-16.92366814,2.84527651,-0.71994789,0.63680524

>  <Name>
P76310038

>  <RI>
0

>  <Rbt.Current_Directory>
/home/fstefaniak/projects/zuza/docking/adenine/4TZX

>  <Rbt.Executable>
rbdock ($Id: //depot/dev/client3/rdock/2013.1/src/exe/rbdock.cxx#4 $)

>  <Rbt.Library>
libRbt.so (2013.1, Build901 2013/11/27)

>  <Rbt.Parameter_File>
/home/fstefaniak/progs/rDock//data/scripts/dock_solv.prm

>  <Rbt.Receptor>
4tzx.prm

>  <SCORE>
-56.4354

>  <SCORE.INTER>
-33.6912

>  <SCORE.INTER.CONST>
1

>  <SCORE.INTER.POLAR>
-4.65926

>  <SCORE.INTER.ROT>
3

>  <SCORE.INTER.SOLV>
14.7868

>  <SCORE.INTER.VDW>
-17.4589

>  <SCORE.INTER.norm>
-2.8076

>  <SCORE.INTRA>
-1.79611

>  <SCORE.INTRA.DIHEDRAL>
-2.7894

>  <SCORE.INTRA.DIHEDRAL.0>
5.64596

>  <SCORE.INTRA.POLAR>
0

>  <SCORE.INTRA.POLAR.0>
0

>  <SCORE.INTRA.REPUL>
0

>  <SCORE.INTRA.REPUL.0>
0

>  <SCORE.INTRA.SOLV>
-0.0149195

>  <SCORE.INTRA.SOLV.lig_0>
-18.9717

>  <SCORE.INTRA.VDW>
-0.393955

>  <SCORE.INTRA.VDW.0>
-0.658995

>  <SCORE.INTRA.norm>
-0.149676

>  <SCORE.RESTR>
0

>  <SCORE.RESTR.CAVITY>
0

>  <SCORE.RESTR.norm>
0

>  <SCORE.SYSTEM>
-20.9481

>  <SCORE.SYSTEM.CONST>
0

>  <SCORE.SYSTEM.DIHEDRAL>
4.08242

>  <SCORE.SYSTEM.POLAR>
-3.02666

>  <SCORE.SYSTEM.SOLV>
0.197634

>  <SCORE.SYSTEM.VDW>
-5.3032

>  <SCORE.SYSTEM.norm>
-1.74567

>  <SCORE.heavy>
12

>  <SCORE.norm>
-4.70295

$$$$
P76310038
 OpenBabel12072022113D
libRbt.so/2013.1/901 2013/11/27
 16 16  0  0  0  0  0  0  0  0999 V2000
  -29.7251   17.7765  -18.2160 C   0  0  0  0  0  0  0  0  0  0  0  0
  -30.8979   18.3760  -18.6829 C   0  0  0  0  0  0  0  0  0  0  0  0
  -31.9808   18.5233  -17.8225 C   0  0  0  0  0  0  0  0  0  0  0  0
  -31.9082   18.0877  -16.5057 C   0  0  0  0  0  0  0  0  0  0  0  0
  -30.7350   17.4952  -16.0371 C   0  0  0  0  0  0  0  0  0  0  0  0
  -29.6319   17.3235  -16.8897 C   0  0  0  0  0  0  0  0  0  0  0  0
  -28.3663   16.6568  -16.3931 C   0  0  2  0  0  0  0  0  0  0  0  0
  -28.5236   15.1404  -16.1391 C   0  0  0  0  0  0  0  0  0  0  0  0
  -27.6093   14.3470  -16.3636 O   0  0  0  0  0  0  0  0  0  0  0  0
  -29.7435   14.6894  -15.7220 N   0  0  0  0  0  0  0  0  0  0  0  0
  -27.9448   17.3246  -15.2060 O   0  0  0  0  0  0  0  0  0  0  0  0
  -33.1438   19.1011  -18.2369 O   0  0  0  0  0  0  0  0  0  0  0  0
  -29.8365   13.7749  -15.2962 H   0  0  0  0  0  0  0  0  0  0  0  0
  -30.5459   15.0444  -16.2270 H   0  0  0  0  0  0  0  0  0  0  0  0
  -27.7145   18.2327  -15.4855 H   0  0  0  0  0  0  0  0  0  0  0  0
  -32.9292   19.8644  -18.7977 H   0  0  0  0  0  0  0  0  0  0  0  0
  1  2  2  0  0  0  0
  1  6  1  0  0  0  0
  2  3  1  0  0  0  0
  3  4  2  0  0  0  0
  3 12  1  0  0  0  0
  4  5  1  0  0  0  0
  5  6  2  0  0  0  0
  7  8  1  1  0  0  0
  7 11  1  0  0  0  0
  7  6  1  0  0  0  0
  8  9  2  0  0  0  0
  8 10  1  0  0  0  0
 10 13  1  0  0  0  0
 10 14  1  0  0  0  0
 11 15  1  0  0  0  0
 12 16  1  0  0  0  0
M  END
>  <CHROM.0>
-57.69354213,-63.26702141,-65.69022544,-40.69231859,-179.94036507,-64.77770306
-58.75775283,-176.28096149,-168.70739353

>  <CHROM.1>
-40.71554995,144.43248530,-64.80819455,-109.35022828,-162.65887480,-29.99699539
17.04137343,-16.81980146,-2.36970338,0.17049705,2.77891075

>  <Name>
P76310038

>  <RI>
0

>  <Rbt.Current_Directory>
/home/fstefaniak/projects/zuza/docking/adenine/4TZX

>  <Rbt.Executable>
rbdock ($Id: //depot/dev/client3/rdock/2013.1/src/exe/rbdock.cxx#4 $)

>  <Rbt.Library>
libRbt.so (2013.1, Build901 2013/11/27)

>  <Rbt.Parameter_File>
/home/fstefaniak/progs/rDock//data/scripts/dock_solv.prm

>  <Rbt.Receptor>
4tzx.prm

>  <SCORE>
-55.6337

>  <SCORE.INTER>
-33.8822

>  <SCORE.INTER.CONST>
1

>  <SCORE.INTER.POLAR>
-4.60841

>  <SCORE.INTER.ROT>
3

>  <SCORE.INTER.SOLV>
15.0715

>  <SCORE.INTER.VDW>
-17.8506

>  <SCORE.INTER.norm>
-2.82352

>  <SCORE.INTRA>
-0.807846

>  <SCORE.INTRA.DIHEDRAL>
-1.15613

>  <SCORE.INTRA.DIHEDRAL.0>
5.64596

>  <SCORE.INTRA.POLAR>
0

>  <SCORE.INTRA.POLAR.0>
0

>  <SCORE.INTRA.REPUL>
0

>  <SCORE.INTRA.REPUL.0>
0

>  <SCORE.INTRA.SOLV>
0.0162581

>  <SCORE.INTRA.SOLV.lig_0>
-18.9717

>  <SCORE.INTRA.VDW>
-0.23791

>  <SCORE.INTRA.VDW.0>
-0.658995

>  <SCORE.INTRA.norm>
-0.0673205

>  <SCORE.RESTR>
0

>  <SCORE.RESTR.CAVITY>
0

>  <SCORE.RESTR.norm>
0

>  <SCORE.SYSTEM>
-20.9436

>  <SCORE.SYSTEM.CONST>
0

>  <SCORE.SYSTEM.DIHEDRAL>
4.72288

>  <SCORE.SYSTEM.POLAR>
-3.09881

>  <SCORE.SYSTEM.SOLV>
-0.110603

>  <SCORE.SYSTEM.VDW>
-5.17047

>  <SCORE.SYSTEM.norm>
-1.7453

>  <SCORE.heavy>
12

>  <SCORE.norm>
-4.63614

$$$$
P76310038
 OpenBabel12072022113D
libRbt.so/2013.1/901 2013/11/27
 16 16  0  0  0  0  0  0  0  0999 V2000
  -29.6882   17.9695  -17.6935 C   0  0  0  0  0  0  0  0  0  0  0  0
  -30.8245   18.3473  -18.4141 C   0  0  0  0  0  0  0  0  0  0  0  0
  -32.0604   18.3774  -17.7769 C   0  0  0  0  0  0  0  0  0  0  0  0
  -32.1774   18.0426  -16.4340 C   0  0  0  0  0  0  0  0  0  0  0  0
  -31.0422   17.6718  -15.7124 C   0  0  0  0  0  0  0  0  0  0  0  0
  -29.7845   17.6214  -16.3361 C   0  0  0  0  0  0  0  0  0  0  0  0
  -28.5543   17.1938  -15.5639 C   0  0  2  0  0  0  0  0  0  0  0  0
  -28.1085   15.7442  -15.8618 C   0  0  0  0  0  0  0  0  0  0  0  0
  -26.9194   15.4311  -15.9232 O   0  0  0  0  0  0  0  0  0  0  0  0
  -29.0807   14.8233  -16.1303 N   0  0  0  0  0  0  0  0  0  0  0  0
  -28.8176   17.3631  -14.1729 O   0  0  0  0  0  0  0  0  0  0  0  0
  -33.1940   18.7386  -18.4422 O   0  0  0  0  0  0  0  0  0  0  0  0
  -29.4304   14.2155  -15.3991 H   0  0  0  0  0  0  0  0  0  0  0  0
  -29.1048   14.4640  -17.0764 H   0  0  0  0  0  0  0  0  0  0  0  0
  -29.1262   18.2858  -14.0764 H   0  0  0  0  0  0  0  0  0  0  0  0
  -32.9480   19.3089  -19.1888 H   0  0  0  0  0  0  0  0  0  0  0  0
  1  2  2  0  0  0  0
  1  6  1  0  0  0  0
  2  3  1  0  0  0  0
  3  4  2  0  0  0  0
  3 12  1  0  0  0  0
  4  5  1  0  0  0  0
  5  6  2  0  0  0  0
  7  8  1  1  0  0  0
  7 11  1  0  0  0  0
  7  6  1  0  0  0  0
  8  9  2  0  0  0  0
  8 10  1  0  0  0  0
 10 13  1  0  0  0  0
 10 14  1  0  0  0  0
 11 15  1  0  0  0  0
 12 16  1  0  0  0  0
M  END
>  <CHROM.0>
-63.34312940,-60.48460426,-64.72133331,-43.12957856,-174.82962659,-179.65321138
-66.25827276,-57.82016360,-169.28766223

>  <CHROM.1>
-25.22537185,142.76222688,-52.55764920,-77.05293441,-96.60076436,-29.99908190
17.24062829,-16.51217204,-2.84749941,-0.63205282,1.30954107

>  <Name>
P76310038

>  <RI>
0

>  <Rbt.Current_Directory>
/home/fstefaniak/projects/zuza/docking/adenine/4TZX

>  <Rbt.Executable>
rbdock ($Id: //depot/dev/client3/rdock/2013.1/src/exe/rbdock.cxx#4 $)

>  <Rbt.Library>
libRbt.so (2013.1, Build901 2013/11/27)

>  <Rbt.Parameter_File>
/home/fstefaniak/progs/rDock//data/scripts/dock_solv.prm

>  <Rbt.Receptor>
4tzx.prm

>  <SCORE>
-54.0784

>  <SCORE.INTER>
-31.9646

>  <SCORE.INTER.CONST>
1

>  <SCORE.INTER.POLAR>
-4.77825

>  <SCORE.INTER.ROT>
3

>  <SCORE.INTER.SOLV>
14.5594

>  <SCORE.INTER.VDW>
-15.8354

>  <SCORE.INTER.norm>
-2.66372

>  <SCORE.INTRA>
-1.04694

>  <SCORE.INTRA.DIHEDRAL>
-2.19527

>  <SCORE.INTRA.DIHEDRAL.0>
5.64596

>  <SCORE.INTRA.POLAR>
0

>  <SCORE.INTRA.POLAR.0>
0

>  <SCORE.INTRA.REPUL>
0

>  <SCORE.INTRA.REPUL.0>
0

>  <SCORE.INTRA.SOLV>
-0.0173168

>  <SCORE.INTRA.SOLV.lig_0>
-18.9717

>  <SCORE.INTRA.VDW>
0.0593495

>  <SCORE.INTRA.VDW.0>
-0.658995

>  <SCORE.INTRA.norm>
-0.0872454

>  <SCORE.RESTR>
0

>  <SCORE.RESTR.CAVITY>
0

>  <SCORE.RESTR.norm>
0

>  <SCORE.SYSTEM>
-21.0669

>  <SCORE.SYSTEM.CONST>
0

>  <SCORE.SYSTEM.DIHEDRAL>
4.38281

>  <SCORE.SYSTEM.POLAR>
-3.029

>  <SCORE.SYSTEM.SOLV>
-0.118431

>  <SCORE.SYSTEM.VDW>
-5.36938

>  <SCORE.SYSTEM.norm>
-1.75557

>  <SCORE.heavy>
12

>  <SCORE.norm>
-4.50654

$$$$
P76326276
 OpenBabel12072022113D
libRbt.so/2013.1/901 2013/11/27
 16 17  0  0  0  0  0  0  0  0999 V2000
  -31.2231   18.2209  -15.4639 C   0  0  0  0  0  0  0  0  0  0  0  0
  -31.2353   18.7551  -16.8893 C   0  0  0  0  0  0  0  0  0  0  0  0
  -30.0266   18.2429  -17.6567 C   0  0  0  0  0  0  0  0  0  0  0  0
  -29.9820   16.8142  -17.6600 O   0  0  0  0  0  0  0  0  0  0  0  0
  -29.9149   16.2423  -16.3493 C   0  0  2  0  0  0  0  0  0  0  0  0
  -31.0783   16.7031  -15.4681 C   0  0  0  0  0  0  0  0  0  0  0  0
  -28.5336   16.4136  -15.6827 C   0  0  0  0  0  0  0  0  0  0  0  0
  -28.3612   16.9417  -14.5885 O   0  0  0  0  0  0  0  0  0  0  0  0
  -27.5190   15.8442  -16.4333 N   0  0  0  0  0  0  0  0  0  0  0  0
  -26.1497   15.8746  -16.0247 C   0  0  2  0  0  0  0  0  0  0  0  0
  -25.0568   16.0770  -17.0379 C   0  0  0  0  0  0  0  0  0  0  0  0
  -25.2073   14.7445  -16.3676 C   0  0  2  0  0  0  0  0  0  0  0  0
  -25.6897   13.5968  -17.1446 N   0  0  0  0  0  0  0  0  0  0  0  0
  -27.7529   15.5504  -17.3775 H   0  0  0  0  0  0  0  0  0  0  0  0
  -24.9174   12.9587  -17.3338 H   0  0  0  0  0  0  0  0  0  0  0  0
  -25.9830   13.9240  -18.0674 H   0  0  0  0  0  0  0  0  0  0  0  0
  1  2  1  0  0  0  0
  1  6  1  0  0  0  0
  2  3  1  0  0  0  0
  3  4  1  0  0  0  0
  4  5  1  0  0  0  0
  5  6  1  0  0  0  0
  5  7  1  1  0  0  0
  7  8  2  0  0  0  0
  7  9  1  0  0  0  0
  9 14  1  0  0  0  0
 10 11  1  0  0  0  0
 10  9  1  6  0  0  0
 10 12  1  0  0  0  0
 11 12  1  0  0  0  0
 12 13  1  6  0  0  0
 13 15  1  0  0  0  0
 13 16  1  0  0  0  0
M  END
>  <CHROM.0>
-61.33257045,-170.98167889,-67.14074306,-41.19880551,-59.91398146,-62.12443949
-64.69353369,-62.72658901,-167.75286125

>  <CHROM.1>
124.45086010,-141.62478185,176.60008506,-28.46032005,16.48297833,-16.39095874
-3.11317639,0.50963873,-1.52317076

>  <Name>
P76326276

>  <RI>
0

>  <Rbt.Current_Directory>
/home/fstefaniak/projects/zuza/docking/adenine/4TZX

>  <Rbt.Executable>
rbdock ($Id: //depot/dev/client3/rdock/2013.1/src/exe/rbdock.cxx#4 $)

>  <Rbt.Library>
libRbt.so (2013.1, Build901 2013/11/27)

>  <Rbt.Parameter_File>
/home/fstefaniak/progs/rDock//data/scripts/dock_solv.prm

>  <Rbt.Receptor>
4tzx.prm

>  <SCORE>
-50.267

>  <SCORE.INTER>
-29.6053

>  <SCORE.INTER.CONST>
1

>  <SCORE.INTER.POLAR>
-3.51074

>  <SCORE.INTER.ROT>
3

>  <SCORE.INTER.SOLV>
13.5302

>  <SCORE.INTER.VDW>
-18.1445

>  <SCORE.INTER.norm>
-2.27733

>  <SCORE.INTRA>
0.188552

>  <SCORE.INTRA.DIHEDRAL>
-0.095978

>  <SCORE.INTRA.DIHEDRAL.0>
3.49205

>  <SCORE.INTRA.POLAR>
0.0197562

>  <SCORE.INTRA.POLAR.0>
-0.0197562

>  <SCORE.INTRA.REPUL>
0

>  <SCORE.INTRA.REPUL.0>
0

>  <SCORE.INTRA.SOLV>
-0.691989

>  <SCORE.INTRA.SOLV.lig_0>
-13.8206

>  <SCORE.INTRA.VDW>
0.515365

>  <SCORE.INTRA.VDW.0>
-1.62774

>  <SCORE.INTRA.norm>
0.014504

>  <SCORE.RESTR>
0

>  <SCORE.RESTR.CAVITY>
0

>  <SCORE.RESTR.norm>
0

>  <SCORE.SYSTEM>
-20.8502

>  <SCORE.SYSTEM.CONST>
0

>  <SCORE.SYSTEM.DIHEDRAL>
5.12256

>  <SCORE.SYSTEM.POLAR>
-3.06568

>  <SCORE.SYSTEM.SOLV>
0.148878

>  <SCORE.SYSTEM.VDW>
-5.43833

>  <SCORE.SYSTEM.norm>
-1.60386

>  <SCORE.heavy>
13

>  <SCORE.norm>
-3.86669

$$$$
P76326276
 OpenBabel12072022113D
libRbt.so/2013.1/901 2013/11/27
 16 17  0  0  0  0  0  0  0  0999 V2000
  -31.2428   18.1449  -15.3993 C   0  0  0  0  0  0  0  0  0  0  0  0
  -31.2851   18.7197  -16.8083 C   0  0  0  0  0  0  0  0  0  0  0  0
  -30.0712   18.2636  -17.6025 C   0  0  0  0  0  0  0  0  0  0  0  0
  -29.9877   16.8374  -17.6481 O   0  0  0  0  0  0  0  0  0  0  0  0
  -29.8907   16.2297  -16.3555 C   0  0  2  0  0  0  0  0  0  0  0  0
  -31.0566   16.6324  -15.4495 C   0  0  0  0  0  0  0  0  0  0  0  0
  -28.5074   16.4198  -15.6981 C   0  0  0  0  0  0  0  0  0  0  0  0
  -28.3318   16.9781  -14.6196 O   0  0  0  0  0  0  0  0  0  0  0  0
  -27.4950   15.8298  -16.4356 N   0  0  0  0  0  0  0  0  0  0  0  0
  -26.1244   15.8718  -16.0322 C   0  0  2  0  0  0  0  0  0  0  0  0
  -25.0373   16.0857  -17.0492 C   0  0  0  0  0  0  0  0  0  0  0  0
  -25.1733   14.7508  -16.3806 C   0  0  2  0  0  0  0  0  0  0  0  0
  -25.6484   13.6001  -17.1578 N   0  0  0  0  0  0  0  0  0  0  0  0
  -27.7317   15.5098  -17.3705 H   0  0  0  0  0  0  0  0  0  0  0  0
  -24.8675   12.9793  -17.3680 H   0  0  0  0  0  0  0  0  0  0  0  0
  -25.9668   13.9290  -18.0715 H   0  0  0  0  0  0  0  0  0  0  0  0
  1  2  1  0  0  0  0
  1  6  1  0  0  0  0
  2  3  1  0  0  0  0
  3  4  1  0  0  0  0
  4  5  1  0  0  0  0
  5  6  1  0  0  0  0
  5  7  1  1  0  0  0
  7  8  2  0  0  0  0
  7  9  1  0  0  0  0
  9 14  1  0  0  0  0
 10 11  1  0  0  0  0
 10  9  1  6  0  0  0
 10 12  1  0  0  0  0
 11 12  1  0  0  0  0
 12 13  1  6  0  0  0
 13 15  1  0  0  0  0
 13 16  1  0  0  0  0
M  END
>  <CHROM.0>
-56.27822650,-171.33617696,-65.09195669,-42.81426338,-61.67908669,-60.05279901
-68.90364761,-59.78935021,-169.08231717

>  <CHROM.1>
120.80409974,-139.85835625,175.40447650,-28.45077005,16.47536737,-16.38107459
-3.09659328,0.50105991,-1.53946958

>  <Name>
P76326276

>  <RI>
0

>  <Rbt.Current_Directory>
/home/fstefaniak/projects/zuza/docking/adenine/4TZX

>  <Rbt.Executable>
rbdock ($Id: //depot/dev/client3/rdock/2013.1/src/exe/rbdock.cxx#4 $)

>  <Rbt.Library>
libRbt.so (2013.1, Build901 2013/11/27)

>  <Rbt.Parameter_File>
/home/fstefaniak/progs/rDock//data/scripts/dock_solv.prm

>  <Rbt.Receptor>
4tzx.prm

>  <SCORE>
-50.1916

>  <SCORE.INTER>
-29.4811

>  <SCORE.INTER.CONST>
1

>  <SCORE.INTER.POLAR>
-3.42107

>  <SCORE.INTER.ROT>
3

>  <SCORE.INTER.SOLV>
13.5879

>  <SCORE.INTER.VDW>
-18.3798

>  <SCORE.INTER.norm>
-2.26778

>  <SCORE.INTRA>
0.203207

>  <SCORE.INTRA.DIHEDRAL>
-0.0390631

>  <SCORE.INTRA.DIHEDRAL.0>
3.49205

>  <SCORE.INTRA.POLAR>
0.0197562

>  <SCORE.INTRA.POLAR.0>
-0.0197562

>  <SCORE.INTRA.REPUL>
0

>  <SCORE.INTRA.REPUL.0>
0

>  <SCORE.INTRA.SOLV>
-0.703791

>  <SCORE.INTRA.SOLV.lig_0>
-13.8206

>  <SCORE.INTRA.VDW>
0.507464

>  <SCORE.INTRA.VDW.0>
-1.62774

>  <SCORE.INTRA.norm>
0.0156313

>  <SCORE.RESTR>
0

>  <SCORE.RESTR.CAVITY>
0

>  <SCORE.RESTR.norm>
0

>  <SCORE.SYSTEM>
-20.9138

>  <SCORE.SYSTEM.CONST>
0

>  <SCORE.SYSTEM.DIHEDRAL>
4.87924

>  <SCORE.SYSTEM.POLAR>
-3.07845

>  <SCORE.SYSTEM.SOLV>
0.154389

>  <SCORE.SYSTEM.VDW>
-5.35888

>  <SCORE.SYSTEM.norm>
-1.60875

>  <SCORE.heavy>
13

>  <SCORE.norm>
-3.8609

$$$$
P76326276
 OpenBabel12072022113D
libRbt.so/2013.1/901 2013/11/27
 16 17  0  0  0  0  0  0  0  0999 V2000
  -30.8477   19.1397  -16.6357 C   0  0  0  0  0  0  0  0  0  0  0  0
  -30.7255   18.9481  -18.1409 C   0  0  0  0  0  0  0  0  0  0  0  0
  -29.7770   17.8014  -18.4531 C   0  0  0  0  0  0  0  0  0  0  0  0
  -30.2064   16.5891  -17.8295 O   0  0  0  0  0  0  0  0  0  0  0  0
  -30.2927   16.6804  -16.4034 C   0  0  2  0  0  0  0  0  0  0  0  0
  -31.2121   17.8214  -15.9618 C   0  0  0  0  0  0  0  0  0  0  0  0
  -28.9130   16.7001  -15.7122 C   0  0  0  0  0  0  0  0  0  0  0  0
  -28.7192   17.1336  -14.5807 O   0  0  0  0  0  0  0  0  0  0  0  0
  -27.9315   16.1126  -16.4922 N   0  0  0  0  0  0  0  0  0  0  0  0
  -26.5700   16.0116  -16.0687 C   0  0  2  0  0  0  0  0  0  0  0  0
  -25.4497   16.2713  -17.0379 C   0  0  0  0  0  0  0  0  0  0  0  0
  -25.6883   14.8782  -16.5383 C   0  0  2  0  0  0  0  0  0  0  0  0
  -26.2222   13.8646  -17.4556 N   0  0  0  0  0  0  0  0  0  0  0  0
  -28.1717   15.9059  -17.4576 H   0  0  0  0  0  0  0  0  0  0  0  0
  -25.4616   13.2866  -17.8119 H   0  0  0  0  0  0  0  0  0  0  0  0
  -26.5960   14.3339  -18.2830 H   0  0  0  0  0  0  0  0  0  0  0  0
  1  2  1  0  0  0  0
  1  6  1  0  0  0  0
  2  3  1  0  0  0  0
  3  4  1  0  0  0  0
  4  5  1  0  0  0  0
  5  6  1  0  0  0  0
  5  7  1  1  0  0  0
  7  8  2  0  0  0  0
  7  9  1  0  0  0  0
  9 14  1  0  0  0  0
 10 11  1  0  0  0  0
 10  9  1  6  0  0  0
 10 12  1  0  0  0  0
 11 12  1  0  0  0  0
 12 13  1  6  0  0  0
 13 15  1  0  0  0  0
 13 16  1  0  0  0  0
M  END
>  <CHROM.0>
-58.55095938,-74.76297493,-71.26067427,-43.34599361,-57.05355682,-58.73453209
-167.18580092,-62.80141623,-168.11349596

>  <CHROM.1>
158.99598967,-138.61397047,169.02983770,-28.66018492,16.74658296,-16.74098149
-3.13138343,0.58879138,-1.66909644

>  <Name>
P76326276

>  <RI>
0

>  <Rbt.Current_Directory>
/home/fstefaniak/projects/zuza/docking/adenine/4TZX

>  <Rbt.Executable>
rbdock ($Id: //depot/dev/client3/rdock/2013.1/src/exe/rbdock.cxx#4 $)

>  <Rbt.Library>
libRbt.so (2013.1, Build901 2013/11/27)

>  <Rbt.Parameter_File>
/home/fstefaniak/progs/rDock//data/scripts/dock_solv.prm

>  <Rbt.Receptor>
4tzx.prm

>  <SCORE>
-49.8701

>  <SCORE.INTER>
-30.271

>  <SCORE.INTER.CONST>
1

>  <SCORE.INTER.POLAR>
-3.04481

>  <SCORE.INTER.ROT>
3

>  <SCORE.INTER.SOLV>
13.9517

>  <SCORE.INTER.VDW>
-20.2819

>  <SCORE.INTER.norm>
-2.32854

>  <SCORE.INTRA>
0.546374

>  <SCORE.INTRA.DIHEDRAL>
0.6854

>  <SCORE.INTRA.DIHEDRAL.0>
3.49205

>  <SCORE.INTRA.POLAR>
-0.0128188

>  <SCORE.INTRA.POLAR.0>
-0.0197562

>  <SCORE.INTRA.REPUL>
0

>  <SCORE.INTRA.REPUL.0>
0

>  <SCORE.INTRA.SOLV>
-0.479659

>  <SCORE.INTRA.SOLV.lig_0>
-13.8206

>  <SCORE.INTRA.VDW>
0.487088

>  <SCORE.INTRA.VDW.0>
-1.62774

>  <SCORE.INTRA.norm>
0.0420288

>  <SCORE.RESTR>
0

>  <SCORE.RESTR.CAVITY>
0

>  <SCORE.RESTR.norm>
0

>  <SCORE.SYSTEM>
-20.1454

>  <SCORE.SYSTEM.CONST>
0

>  <SCORE.SYSTEM.DIHEDRAL>
6.3695

>  <SCORE.SYSTEM.POLAR>
-3.04562

>  <SCORE.SYSTEM.SOLV>
0.153541

>  <SCORE.SYSTEM.VDW>
-5.45256

>  <SCORE.SYSTEM.norm>
-1.54965

>  <SCORE.heavy>
13

>  <SCORE.norm>
-3.83616

$$$$
P77621951
 OpenBabel12072022113D
libRbt.so/2013.1/901 2013/11/27
 12 11  0  0  0  0  0  0  0  0999 V2000
  -27.5582   14.9481  -16.3256 C   0  0  0  0  0  0  0  0  0  0  0  0
  -28.2348   16.3112  -16.3755 C   0  0  1  0  0  0  0  0  0  0  0  0
  -29.7671   16.1684  -16.3002 C   0  0  0  0  0  0  0  0  0  0  0  0
  -30.4487   17.4674  -16.2155 N   0  0  0  0  0  0  0  0  0  0  0  0
  -30.9665   17.8584  -14.9170 C   0  0  0  0  0  0  0  0  0  0  0  0
  -30.5926   18.3335  -17.2766 C   0  0  0  0  0  0  0  0  0  0  0  0
  -31.0578   19.4655  -17.1981 O   0  0  0  0  0  0  0  0  0  0  0  0
  -30.1726   17.8654  -18.4777 N   0  0  0  0  0  0  0  0  0  0  0  0
  -27.7569   17.0837  -15.2657 O   0  0  0  0  0  0  0  0  0  0  0  0
  -30.9022   17.4146  -19.0270 H   0  0  0  0  0  0  0  0  0  0  0  0
  -29.6433   18.5522  -18.9964 H   0  0  0  0  0  0  0  0  0  0  0  0
  -27.9588   18.0162  -15.4651 H   0  0  0  0  0  0  0  0  0  0  0  0
  2  1  1  1  0  0  0
  2  3  1  0  0  0  0
  2  9  1  0  0  0  0
  3  4  1  0  0  0  0
  4  5  1  0  0  0  0
  4  6  1  0  0  0  0
  6  7  2  0  0  0  0
  6  8  1  0  0  0  0
  8 10  1  0  0  0  0
  8 11  1  0  0  0  0
  9 12  1  0  0  0  0
M  END
>  <CHROM.0>
-60.28261531,-166.91414840,-61.83479911,-44.40715991,-56.49659740,-66.38052661
-65.17425373,-61.98879194,-169.34373809

>  <CHROM.1>
174.49530179,162.00182572,-104.03861689,92.44275226,-29.59836851,17.30191640
-16.48213552,-0.29378437,0.75071153,-1.54074111

>  <Name>
P77621951

>  <RI>
0

>  <Rbt.Current_Directory>
/home/fstefaniak/projects/zuza/docking/adenine/4TZX

>  <Rbt.Executable>
rbdock ($Id: //depot/dev/client3/rdock/2013.1/src/exe/rbdock.cxx#4 $)

>  <Rbt.Library>
libRbt.so (2013.1, Build901 2013/11/27)

>  <Rbt.Parameter_File>
/home/fstefaniak/progs/rDock//data/scripts/dock_solv.prm

>  <Rbt.Receptor>
4tzx.prm

>  <SCORE>
-43.1156

>  <SCORE.INTER>
-25.1336

>  <SCORE.INTER.CONST>
1

>  <SCORE.INTER.POLAR>
-2.90938

>  <SCORE.INTER.ROT>
3

>  <SCORE.INTER.SOLV>
10.9333

>  <SCORE.INTER.VDW>
-16.3022

>  <SCORE.INTER.norm>
-2.79262

>  <SCORE.INTRA>
2.72256

>  <SCORE.INTRA.DIHEDRAL>
0.993135

>  <SCORE.INTRA.DIHEDRAL.0>
2.24581

>  <SCORE.INTRA.POLAR>
1

>  <SCORE.INTRA.POLAR.0>
-1

>  <SCORE.INTRA.REPUL>
0

>  <SCORE.INTRA.REPUL.0>
0

>  <SCORE.INTRA.SOLV>
-0.68689

>  <SCORE.INTRA.SOLV.lig_0>
-13.9672

>  <SCORE.INTRA.VDW>
-0.83056

>  <SCORE.INTRA.VDW.0>
-0.500179

>  <SCORE.INTRA.norm>
0.302507

>  <SCORE.RESTR>
0

>  <SCORE.RESTR.CAVITY>
0

>  <SCORE.RESTR.norm>
0

>  <SCORE.SYSTEM>
-20.7045

>  <SCORE.SYSTEM.CONST>
0

>  <SCORE.SYSTEM.DIHEDRAL>
4.91847

>  <SCORE.SYSTEM.POLAR>
-3.01492

>  <SCORE.SYSTEM.SOLV>
0.143741

>  <SCORE.SYSTEM.VDW>
-5.44072

>  <SCORE.SYSTEM.norm>
-2.30051

>  <SCORE.heavy>
9

>  <SCORE.norm>
-4.79062

$$$$
P77621951
 OpenBabel12072022113D
libRbt.so/2013.1/901 2013/11/27
 12 11  0  0  0  0  0  0  0  0999 V2000
  -27.4615   15.1244  -16.3485 C   0  0  0  0  0  0  0  0  0  0  0  0
  -28.2075   16.4494  -16.2697 C   0  0  1  0  0  0  0  0  0  0  0  0
  -29.7265   16.2199  -16.1525 C   0  0  0  0  0  0  0  0  0  0  0  0
  -30.4723   17.4741  -15.9796 N   0  0  0  0  0  0  0  0  0  0  0  0
  -30.8911   18.1654  -17.1854 C   0  0  0  0  0  0  0  0  0  0  0  0
  -30.8171   18.0040  -14.7561 C   0  0  0  0  0  0  0  0  0  0  0  0
  -31.5329   18.9868  -14.5954 O   0  0  0  0  0  0  0  0  0  0  0  0
  -30.3129   17.3606  -13.6744 N   0  0  0  0  0  0  0  0  0  0  0  0
  -27.7267   17.1607  -15.1208 O   0  0  0  0  0  0  0  0  0  0  0  0
  -29.2959   17.3073  -13.6584 H   0  0  0  0  0  0  0  0  0  0  0  0
  -30.7133   17.6903  -12.8073 H   0  0  0  0  0  0  0  0  0  0  0  0
  -26.8195   17.4498  -15.3291 H   0  0  0  0  0  0  0  0  0  0  0  0
  2  1  1  1  0  0  0
  2  3  1  0  0  0  0
  2  9  1  0  0  0  0
  3  4  1  0  0  0  0
  4  5  1  0  0  0  0
  4  6  1  0  0  0  0
  6  7  2  0  0  0  0
  6  8  1  0  0  0  0
  8 10  1  0  0  0  0
  8 11  1  0  0  0  0
  9 12  1  0  0  0  0
M  END
>  <CHROM.0>
-60.03349083,-170.75152485,-70.17925973,-44.47731628,-58.36029800,57.84717136
-65.83923260,62.97321100,-168.96548733

>  <CHROM.1>
175.99290849,70.90600219,88.35263601,58.23186894,-29.65064821,17.23289913
-15.53176366,0.37484935,0.57402016,-1.76900166

>  <Name>
P77621951

>  <RI>
0

>  <Rbt.Current_Directory>
/home/fstefaniak/projects/zuza/docking/adenine/4TZX

>  <Rbt.Executable>
rbdock ($Id: //depot/dev/client3/rdock/2013.1/src/exe/rbdock.cxx#4 $)

>  <Rbt.Library>
libRbt.so (2013.1, Build901 2013/11/27)

>  <Rbt.Parameter_File>
/home/fstefaniak/progs/rDock//data/scripts/dock_solv.prm

>  <Rbt.Receptor>
4tzx.prm

>  <SCORE>
-42.5765

>  <SCORE.INTER>
-24.2362

>  <SCORE.INTER.CONST>
1

>  <SCORE.INTER.POLAR>
-3.19357

>  <SCORE.INTER.ROT>
3

>  <SCORE.INTER.SOLV>
10.6775

>  <SCORE.INTER.VDW>
-14.6714

>  <SCORE.INTER.norm>
-2.69291

>  <SCORE.INTRA>
0.493711

>  <SCORE.INTRA.DIHEDRAL>
0.117536

>  <SCORE.INTRA.DIHEDRAL.0>
2.24581

>  <SCORE.INTRA.POLAR>
0.276271

>  <SCORE.INTRA.POLAR.0>
-1

>  <SCORE.INTRA.REPUL>
0

>  <SCORE.INTRA.REPUL.0>
0

>  <SCORE.INTRA.SOLV>
-0.11442

>  <SCORE.INTRA.SOLV.lig_0>
-13.9672

>  <SCORE.INTRA.VDW>
-0.447168

>  <SCORE.INTRA.VDW.0>
-0.500179

>  <SCORE.INTRA.norm>
0.0548567

>  <SCORE.RESTR>
0

>  <SCORE.RESTR.CAVITY>
0

>  <SCORE.RESTR.norm>
0

>  <SCORE.SYSTEM>
-18.834

>  <SCORE.SYSTEM.CONST>
0

>  <SCORE.SYSTEM.DIHEDRAL>
4.84931

>  <SCORE.SYSTEM.POLAR>
-3.00417

>  <SCORE.SYSTEM.SOLV>
-0.160093

>  <SCORE.SYSTEM.VDW>
-4.10514

>  <SCORE.SYSTEM.norm>
-2.09266

>  <SCORE.heavy>
9

>  <SCORE.norm>
-4.73072

$$$$
P77621951
 OpenBabel12072022113D
libRbt.so/2013.1/901 2013/11/27
 12 11  0  0  0  0  0  0  0  0999 V2000
  -27.6576   14.9941  -16.0864 C   0  0  0  0  0  0  0  0  0  0  0  0
  -28.3263   16.3553  -16.2217 C   0  0  1  0  0  0  0  0  0  0  0  0
  -29.8609   16.2181  -16.2141 C   0  0  0  0  0  0  0  0  0  0  0  0
  -30.5391   17.5069  -16.0194 N   0  0  0  0  0  0  0  0  0  0  0  0
  -30.9249   18.2374  -17.2131 C   0  0  0  0  0  0  0  0  0  0  0  0
  -30.8515   18.0357  -14.7868 C   0  0  0  0  0  0  0  0  0  0  0  0
  -31.5141   19.0522  -14.6086 O   0  0  0  0  0  0  0  0  0  0  0  0
  -30.3782   17.3504  -13.7169 N   0  0  0  0  0  0  0  0  0  0  0  0
  -27.8992   17.1699  -15.1213 O   0  0  0  0  0  0  0  0  0  0  0  0
  -29.3623   17.2914  -13.6767 H   0  0  0  0  0  0  0  0  0  0  0  0
  -30.7996   17.6502  -12.8489 H   0  0  0  0  0  0  0  0  0  0  0  0
  -27.9246   18.0941  -15.4298 H   0  0  0  0  0  0  0  0  0  0  0  0
  2  1  1  1  0  0  0
  2  3  1  0  0  0  0
  2  9  1  0  0  0  0
  3  4  1  0  0  0  0
  4  5  1  0  0  0  0
  4  6  1  0  0  0  0
  6  7  2  0  0  0  0
  6  8  1  0  0  0  0
  8 10  1  0  0  0  0
  8 11  1  0  0  0  0
  9 12  1  0  0  0  0
M  END
>  <CHROM.0>
-57.28324339,43.34362911,-67.16476944,-41.75172138,-174.56462410,-61.83066074
-67.67223249,-173.61649535,-168.15447495

>  <CHROM.1>
166.30831027,151.22154125,92.91802029,61.69374855,-29.74810022,17.23560619
-15.52129308,-0.33410676,-0.64628963,1.38538835

>  <Name>
P77621951

>  <RI>
0

>  <Rbt.Current_Directory>
/home/fstefaniak/projects/zuza/docking/adenine/4TZX

>  <Rbt.Executable>
rbdock ($Id: //depot/dev/client3/rdock/2013.1/src/exe/rbdock.cxx#4 $)

>  <Rbt.Library>
libRbt.so (2013.1, Build901 2013/11/27)

>  <Rbt.Parameter_File>
/home/fstefaniak/progs/rDock//data/scripts/dock_solv.prm

>  <Rbt.Receptor>
4tzx.prm

>  <SCORE>
-42.1868

>  <SCORE.INTER>
-24.2614

>  <SCORE.INTER.CONST>
1

>  <SCORE.INTER.POLAR>
-3.48381

>  <SCORE.INTER.ROT>
3

>  <SCORE.INTER.SOLV>
10.5962

>  <SCORE.INTER.VDW>
-13.6937

>  <SCORE.INTER.norm>
-2.69572

>  <SCORE.INTRA>
2.25273

>  <SCORE.INTRA.DIHEDRAL>
3.5051

>  <SCORE.INTRA.DIHEDRAL.0>
2.24581

>  <SCORE.INTRA.POLAR>
0.395768

>  <SCORE.INTRA.POLAR.0>
-1

>  <SCORE.INTRA.REPUL>
0

>  <SCORE.INTRA.REPUL.0>
0

>  <SCORE.INTRA.SOLV>
0.23092

>  <SCORE.INTRA.SOLV.lig_0>
-13.9672

>  <SCORE.INTRA.VDW>
-0.960893

>  <SCORE.INTRA.VDW.0>
-0.500179

>  <SCORE.INTRA.norm>
0.250303

>  <SCORE.RESTR>
0

>  <SCORE.RESTR.CAVITY>
0

>  <SCORE.RESTR.norm>
0

>  <SCORE.SYSTEM>
-20.1781

>  <SCORE.SYSTEM.CONST>
0

>  <SCORE.SYSTEM.DIHEDRAL>
6.33892

>  <SCORE.SYSTEM.POLAR>
-3.17039

>  <SCORE.SYSTEM.SOLV>
-0.015147

>  <SCORE.SYSTEM.VDW>
-4.99198

>  <SCORE.SYSTEM.norm>
-2.24201

>  <SCORE.heavy>
9

>  <SCORE.norm>
-4.68742

$$$$
P77621952
 OpenBabel12072022113D
libRbt.so/2013.1/901 2013/11/27
 12 11  0  0  0  0  0  0  0  0999 V2000
  -28.9187   15.7464  -15.7784 C   0  0  0  0  0  0  0  0  0  0  0  0
  -30.1189   16.6718  -15.9127 C   0  0  2  0  0  0  0  0  0  0  0  0
  -29.7632   17.9190  -16.7426 C   0  0  0  0  0  0  0  0  0  0  0  0
  -30.7460   18.2086  -17.7941 N   0  0  0  0  0  0  0  0  0  0  0  0
  -30.2700   18.1512  -19.1709 C   0  0  0  0  0  0  0  0  0  0  0  0
  -32.0200   18.5403  -17.4024 C   0  0  0  0  0  0  0  0  0  0  0  0
  -32.3629   18.7010  -16.2360 O   0  0  0  0  0  0  0  0  0  0  0  0
  -32.9313   18.7045  -18.3892 N   0  0  0  0  0  0  0  0  0  0  0  0
  -30.5261   17.0575  -14.5970 O   0  0  0  0  0  0  0  0  0  0  0  0
  -32.8674   19.5599  -18.9198 H   0  0  0  0  0  0  0  0  0  0  0  0
  -33.0142   17.8791  -18.9704 H   0  0  0  0  0  0  0  0  0  0  0  0
  -31.3061   17.6271  -14.7259 H   0  0  0  0  0  0  0  0  0  0  0  0
  2  3  1  0  0  0  0
  2  9  1  0  0  0  0
  2  1  1  1  0  0  0
  3  4  1  0  0  0  0
  4  5  1  0  0  0  0
  4  6  1  0  0  0  0
  6  7  2  0  0  0  0
  6  8  1  0  0  0  0
  8 10  1  0  0  0  0
  8 11  1  0  0  0  0
  9 12  1  0  0  0  0
M  END
>  <CHROM.0>
-60.44478905,-63.11816693,-66.16283376,-44.01043922,-56.74271267,-53.84425706
-69.86693493,-60.10261334,-169.03118760

>  <CHROM.1>
131.66591233,-178.57851344,-117.26865188,-75.41774465,-30.87215749,17.74616611
-16.87045826,-0.86215546,0.51055434,-1.30161912

>  <Name>
P77621952

>  <RI>
0

>  <Rbt.Current_Directory>
/home/fstefaniak/projects/zuza/docking/adenine/4TZX

>  <Rbt.Executable>
rbdock ($Id: //depot/dev/client3/rdock/2013.1/src/exe/rbdock.cxx#4 $)

>  <Rbt.Library>
libRbt.so (2013.1, Build901 2013/11/27)

>  <Rbt.Parameter_File>
/home/fstefaniak/progs/rDock//data/scripts/dock_solv.prm

>  <Rbt.Receptor>
4tzx.prm

>  <SCORE>
-54.5479

>  <SCORE.INTER>
-33.1644

>  <SCORE.INTER.CONST>
1

>  <SCORE.INTER.POLAR>
-4.70567

>  <SCORE.INTER.ROT>
3

>  <SCORE.INTER.SOLV>
11.9981

>  <SCORE.INTER.VDW>
-16.0234

>  <SCORE.INTER.norm>
-3.68493

>  <SCORE.INTRA>
-0.313466

>  <SCORE.INTRA.DIHEDRAL>
4.43658

>  <SCORE.INTRA.DIHEDRAL.0>
2.0697

>  <SCORE.INTRA.POLAR>
-0.733309

>  <SCORE.INTRA.POLAR.0>
0

>  <SCORE.INTRA.REPUL>
0

>  <SCORE.INTRA.REPUL.0>
0

>  <SCORE.INTRA.SOLV>
0.108268

>  <SCORE.INTRA.SOLV.lig_0>
-14.8279

>  <SCORE.INTRA.VDW>
-0.0926415

>  <SCORE.INTRA.VDW.0>
-0.732496

>  <SCORE.INTRA.norm>
-0.0348296

>  <SCORE.RESTR>
0

>  <SCORE.RESTR.CAVITY>
0

>  <SCORE.RESTR.norm>
0

>  <SCORE.SYSTEM>
-21.07

>  <SCORE.SYSTEM.CONST>
0

>  <SCORE.SYSTEM.DIHEDRAL>
4.68458

>  <SCORE.SYSTEM.POLAR>
-3.05426

>  <SCORE.SYSTEM.SOLV>
0.187968

>  <SCORE.SYSTEM.VDW>
-5.49001

>  <SCORE.SYSTEM.norm>
-2.34111

>  <SCORE.heavy>
9

>  <SCORE.norm>
-6.06088

$$$$
P77621952
 OpenBabel12072022113D
libRbt.so/2013.1/901 2013/11/27
 12 11  0  0  0  0  0  0  0  0999 V2000
  -28.9783   15.5669  -15.6999 C   0  0  0  0  0  0  0  0  0  0  0  0
  -30.0965   16.5908  -15.8271 C   0  0  2  0  0  0  0  0  0  0  0  0
  -29.6586   17.7793  -16.7026 C   0  0  0  0  0  0  0  0  0  0  0  0
  -30.6289   18.1057  -17.7549 N   0  0  0  0  0  0  0  0  0  0  0  0
  -30.1677   17.9859  -19.1327 C   0  0  0  0  0  0  0  0  0  0  0  0
  -31.8765   18.5265  -17.3637 C   0  0  0  0  0  0  0  0  0  0  0  0
  -32.1999   18.7361  -16.1996 O   0  0  0  0  0  0  0  0  0  0  0  0
  -32.7829   18.7248  -18.3489 N   0  0  0  0  0  0  0  0  0  0  0  0
  -30.4278   17.0456  -14.5121 O   0  0  0  0  0  0  0  0  0  0  0  0
  -32.7128   19.5955  -18.8530 H   0  0  0  0  0  0  0  0  0  0  0  0
  -32.8671   17.9177  -18.9551 H   0  0  0  0  0  0  0  0  0  0  0  0
  -31.1174   17.7221  -14.6402 H   0  0  0  0  0  0  0  0  0  0  0  0
  2  3  1  0  0  0  0
  2  9  1  0  0  0  0
  2  1  1  1  0  0  0
  3  4  1  0  0  0  0
  4  5  1  0  0  0  0
  4  6  1  0  0  0  0
  6  7  2  0  0  0  0
  6  8  1  0  0  0  0
  8 10  1  0  0  0  0
  8 11  1  0  0  0  0
  9 12  1  0  0  0  0
M  END
>  <CHROM.0>
-59.49821482,57.42742519,-65.26839907,-43.09455561,-59.19124422,-59.83863011
-65.26939046,-59.71073737,-169.40666391

>  <CHROM.1>
130.24971343,177.74763167,-118.15840772,-80.02860240,-30.77741116,17.67823956
-16.81658416,-0.87439882,0.58060288,-1.32839584

>  <Name>
P77621952

>  <RI>
0

>  <Rbt.Current_Directory>
/home/fstefaniak/projects/zuza/docking/adenine/4TZX

>  <Rbt.Executable>
rbdock ($Id: //depot/dev/client3/rdock/2013.1/src/exe/rbdock.cxx#4 $)

>  <Rbt.Library>
libRbt.so (2013.1, Build901 2013/11/27)

>  <Rbt.Parameter_File>
/home/fstefaniak/progs/rDock//data/scripts/dock_solv.prm

>  <Rbt.Receptor>
4tzx.prm

>  <SCORE>
-53.9498

>  <SCORE.INTER>
-33.3604

>  <SCORE.INTER.CONST>
1

>  <SCORE.INTER.POLAR>
-4.87561

>  <SCORE.INTER.ROT>
3

>  <SCORE.INTER.SOLV>
11.9829

>  <SCORE.INTER.VDW>
-15.5825

>  <SCORE.INTER.norm>
-3.70671

>  <SCORE.INTRA>
-0.288272

>  <SCORE.INTRA.DIHEDRAL>
4.55709

>  <SCORE.INTRA.DIHEDRAL.0>
2.0697

>  <SCORE.INTRA.POLAR>
-0.786579

>  <SCORE.INTRA.POLAR.0>
0

>  <SCORE.INTRA.REPUL>
0

>  <SCORE.INTRA.REPUL.0>
0

>  <SCORE.INTRA.SOLV>
0.0971268

>  <SCORE.INTRA.SOLV.lig_0>
-14.8279

>  <SCORE.INTRA.VDW>
0.0589903

>  <SCORE.INTRA.VDW.0>
-0.732496

>  <SCORE.INTRA.norm>
-0.0320302

>  <SCORE.RESTR>
0

>  <SCORE.RESTR.CAVITY>
0

>  <SCORE.RESTR.norm>
0

>  <SCORE.SYSTEM>
-20.3011

>  <SCORE.SYSTEM.CONST>
0

>  <SCORE.SYSTEM.DIHEDRAL>
4.19212

>  <SCORE.SYSTEM.POLAR>
-3.04281

>  <SCORE.SYSTEM.SOLV>
0.267782

>  <SCORE.SYSTEM.VDW>
-4.87796

>  <SCORE.SYSTEM.norm>
-2.25567

>  <SCORE.heavy>
9

>  <SCORE.norm>
-5.99442

$$$$
P77621952
 OpenBabel12072022113D
libRbt.so/2013.1/901 2013/11/27
 12 11  0  0  0  0  0  0  0  0999 V2000
  -28.9566   15.4447  -15.7123 C   0  0  0  0  0  0  0  0  0  0  0  0
  -30.0856   16.4548  -15.8544 C   0  0  2  0  0  0  0  0  0  0  0  0
  -29.6307   17.6787  -16.6705 C   0  0  0  0  0  0  0  0  0  0  0  0
  -30.5813   18.0509  -17.7257 N   0  0  0  0  0  0  0  0  0  0  0  0
  -30.1051   17.9577  -19.1004 C   0  0  0  0  0  0  0  0  0  0  0  0
  -31.8254   18.4856  -17.3388 C   0  0  0  0  0  0  0  0  0  0  0  0
  -32.1594   18.6713  -16.1736 O   0  0  0  0  0  0  0  0  0  0  0  0
  -32.7154   18.7268  -18.3294 N   0  0  0  0  0  0  0  0  0  0  0  0
  -30.4807   16.8601  -14.5409 O   0  0  0  0  0  0  0  0  0  0  0  0
  -32.6036   19.5952  -18.8299 H   0  0  0  0  0  0  0  0  0  0  0  0
  -32.8308   17.9262  -18.9390 H   0  0  0  0  0  0  0  0  0  0  0  0
  -31.1380   17.5666  -14.6767 H   0  0  0  0  0  0  0  0  0  0  0  0
  2  3  1  0  0  0  0
  2  9  1  0  0  0  0
  2  1  1  1  0  0  0
  3  4  1  0  0  0  0
  4  5  1  0  0  0  0
  4  6  1  0  0  0  0
  6  7  2  0  0  0  0
  6  8  1  0  0  0  0
  8 10  1  0  0  0  0
  8 11  1  0  0  0  0
  9 12  1  0  0  0  0
M  END
>  <CHROM.0>
-60.04211923,-65.02543649,-71.40151595,-43.10729030,-55.52430654,-175.46281633
-171.90228301,-62.42497403,-168.59022486

>  <CHROM.1>
132.06978271,174.53783076,-116.71591439,-78.08889115,-30.74751755,17.59629914
-16.80651397,-0.89071959,0.58779978,-1.28008411

>  <Name>
P77621952

>  <RI>
0

>  <Rbt.Current_Directory>
/home/fstefaniak/projects/zuza/docking/adenine/4TZX

>  <Rbt.Executable>
rbdock ($Id: //depot/dev/client3/rdock/2013.1/src/exe/rbdock.cxx#4 $)

>  <Rbt.Library>
libRbt.so (2013.1, Build901 2013/11/27)

>  <Rbt.Parameter_File>
/home/fstefaniak/progs/rDock//data/scripts/dock_solv.prm

>  <Rbt.Receptor>
4tzx.prm

>  <SCORE>
-53.8676

>  <SCORE.INTER>
-33.1541

>  <SCORE.INTER.CONST>
1

>  <SCORE.INTER.POLAR>
-4.82849

>  <SCORE.INTER.ROT>
3

>  <SCORE.INTER.SOLV>
12.144

>  <SCORE.INTER.VDW>
-15.6558

>  <SCORE.INTER.norm>
-3.68379

>  <SCORE.INTRA>
-0.327704

>  <SCORE.INTRA.DIHEDRAL>
4.54221

>  <SCORE.INTRA.DIHEDRAL.0>
2.0697

>  <SCORE.INTRA.POLAR>
-0.800585

>  <SCORE.INTRA.POLAR.0>
0

>  <SCORE.INTRA.REPUL>
0

>  <SCORE.INTRA.REPUL.0>
0

>  <SCORE.INTRA.SOLV>
0.107603

>  <SCORE.INTRA.SOLV.lig_0>
-14.8279

>  <SCORE.INTRA.VDW>
0.0693771

>  <SCORE.INTRA.VDW.0>
-0.732496

>  <SCORE.INTRA.norm>
-0.0364116

>  <SCORE.RESTR>
0

>  <SCORE.RESTR.CAVITY>
0

>  <SCORE.RESTR.norm>
0

>  <SCORE.SYSTEM>
-20.3858

>  <SCORE.SYSTEM.CONST>
0

>  <SCORE.SYSTEM.DIHEDRAL>
5.18181

>  <SCORE.SYSTEM.POLAR>
-3.04168

>  <SCORE.SYSTEM.SOLV>
0.0368495

>  <SCORE.SYSTEM.VDW>
-5.19114

>  <SCORE.SYSTEM.norm>
-2.26509

>  <SCORE.heavy>
9

>  <SCORE.norm>
-5.98529

$$$$
P77714041
 OpenBabel12072022113D
libRbt.so/2013.1/901 2013/11/27
 12 12  0  0  0  0  0  0  0  0999 V2000
  -29.9004   17.6656  -17.4600 C   0  0  0  0  0  0  0  0  0  0  0  0
  -29.8415   16.4514  -16.5262 C   0  0  2  0  0  0  0  0  0  0  0  0
  -29.9163   16.9052  -15.1135 C   0  0  0  0  0  0  0  0  0  0  0  0
  -29.9714   17.2551  -14.0071 N   0  0  0  0  0  0  0  0  0  0  0  0
  -28.6801   15.5996  -16.8632 N   0  0  0  0  0  0  0  0  0  0  0  0
  -27.3968   16.0196  -16.3013 C   0  0  0  0  0  0  0  0  0  0  0  0
  -26.5152   14.8360  -16.6599 C   0  0  0  0  0  0  0  0  0  0  0  0
  -27.4268   13.6235  -16.4486 C   0  0  1  0  0  0  0  0  0  0  0  0
  -28.8503   14.1907  -16.4899 C   0  0  0  0  0  0  0  0  0  0  0  0
  -27.1986   12.5211  -17.4759 C   0  0  0  0  0  0  0  0  0  0  0  0
  -27.5271   12.9806  -18.7812 O   0  0  0  0  0  0  0  0  0  0  0  0
  -28.4909   12.9088  -18.8865 H   0  0  0  0  0  0  0  0  0  0  0  0
  2  3  1  0  0  0  0
  2  5  1  0  0  0  0
  2  1  1  6  0  0  0
  3  4  3  0  0  0  0
  5  6  1  0  0  0  0
  5  9  1  0  0  0  0
  6  7  1  0  0  0  0
  7  8  1  0  0  0  0
  8  9  1  0  0  0  0
  8 10  1  6  0  0  0
 10 11  1  0  0  0  0
 11 12  1  0  0  0  0
M  END
>  <CHROM.0>
-62.43785171,-32.45527155,-71.09368877,-43.10707109,60.53070590,-60.68070813
-168.31000614,-59.39429114,-168.84662999

>  <CHROM.1>
82.42250668,-63.72262204,-81.70904877,-28.45110110,15.22942437,-16.62663367
2.46269270,-0.88802276,1.25532745

>  <Name>
P77714041

>  <RI>
0

>  <Rbt.Current_Directory>
/home/fstefaniak/projects/zuza/docking/adenine/4TZX

>  <Rbt.Executable>
rbdock ($Id: //depot/dev/client3/rdock/2013.1/src/exe/rbdock.cxx#4 $)

>  <Rbt.Library>
libRbt.so (2013.1, Build901 2013/11/27)

>  <Rbt.Parameter_File>
/home/fstefaniak/progs/rDock//data/scripts/dock_solv.prm

>  <Rbt.Receptor>
4tzx.prm

>  <SCORE>
-39.6559

>  <SCORE.INTER>
-23.2818

>  <SCORE.INTER.CONST>
1

>  <SCORE.INTER.POLAR>
-2.44095

>  <SCORE.INTER.ROT>
2

>  <SCORE.INTER.SOLV>
10.7358

>  <SCORE.INTER.VDW>
-15.8967

>  <SCORE.INTER.norm>
-2.11653

>  <SCORE.INTRA>
1.1539

>  <SCORE.INTRA.DIHEDRAL>
2.36476

>  <SCORE.INTRA.DIHEDRAL.0>
0.626428

>  <SCORE.INTRA.POLAR>
0

>  <SCORE.INTRA.POLAR.0>
0

>  <SCORE.INTRA.REPUL>
0

>  <SCORE.INTRA.REPUL.0>
0

>  <SCORE.INTRA.SOLV>
0.715677

>  <SCORE.INTRA.SOLV.lig_0>
-12.2445

>  <SCORE.INTRA.VDW>
-0.386318

>  <SCORE.INTRA.VDW.0>
0.77927

>  <SCORE.INTRA.norm>
0.1049

>  <SCORE.RESTR>
0

>  <SCORE.RESTR.CAVITY>
0

>  <SCORE.RESTR.norm>
0

>  <SCORE.SYSTEM>
-17.5279

>  <SCORE.SYSTEM.CONST>
0

>  <SCORE.SYSTEM.DIHEDRAL>
8.20959

>  <SCORE.SYSTEM.POLAR>
-3.02342

>  <SCORE.SYSTEM.SOLV>
0.0389186

>  <SCORE.SYSTEM.VDW>
-4.3567

>  <SCORE.SYSTEM.norm>
-1.59345

>  <SCORE.heavy>
11

>  <SCORE.norm>
-3.60508

$$$$
P77714041
 OpenBabel12072022113D
libRbt.so/2013.1/901 2013/11/27
 12 12  0  0  0  0  0  0  0  0999 V2000
  -30.4792   18.3855  -17.1919 C   0  0  0  0  0  0  0  0  0  0  0  0
  -30.4531   17.0254  -16.4855 C   0  0  2  0  0  0  0  0  0  0  0  0
  -30.8752   17.1907  -15.0706 C   0  0  0  0  0  0  0  0  0  0  0  0
  -31.2017   17.3151  -13.9628 N   0  0  0  0  0  0  0  0  0  0  0  0
  -29.1451   16.3653  -16.6893 N   0  0  0  0  0  0  0  0  0  0  0  0
  -28.0455   16.8593  -15.8612 C   0  0  0  0  0  0  0  0  0  0  0  0
  -26.9612   15.8422  -16.1715 C   0  0  0  0  0  0  0  0  0  0  0  0
  -27.7192   14.5140  -16.2569 C   0  0  1  0  0  0  0  0  0  0  0  0
  -29.1797   14.9105  -16.5004 C   0  0  0  0  0  0  0  0  0  0  0  0
  -27.1709   13.5839  -17.3327 C   0  0  0  0  0  0  0  0  0  0  0  0
  -25.8491   13.1713  -17.0081 O   0  0  0  0  0  0  0  0  0  0  0  0
  -25.5149   12.6383  -17.7493 H   0  0  0  0  0  0  0  0  0  0  0  0
  2  3  1  0  0  0  0
  2  5  1  0  0  0  0
  2  1  1  1  0  0  0
  3  4  3  0  0  0  0
  5  6  1  0  0  0  0
  5  9  1  0  0  0  0
  6  7  1  0  0  0  0
  7  8  1  0  0  0  0
  8  9  1  0  0  0  0
  8 10  1  6  0  0  0
 10 11  1  0  0  0  0
 11 12  1  0  0  0  0
M  END
>  <CHROM.0>
-59.98337124,176.62360120,61.35261049,-43.83216576,-57.98776329,-60.38921578
56.04907501,-174.89032905,-168.83563813

>  <CHROM.1>
77.85106872,65.48064108,-175.72928099,-28.74597052,15.86854708,-16.26979684
-2.93440728,-0.74969482,2.20525147

>  <Name>
P77714041

>  <RI>
0

>  <Rbt.Current_Directory>
/home/fstefaniak/projects/zuza/docking/adenine/4TZX

>  <Rbt.Executable>
rbdock ($Id: //depot/dev/client3/rdock/2013.1/src/exe/rbdock.cxx#4 $)

>  <Rbt.Library>
libRbt.so (2013.1, Build901 2013/11/27)

>  <Rbt.Parameter_File>
/home/fstefaniak/progs/rDock//data/scripts/dock_solv.prm

>  <Rbt.Receptor>
4tzx.prm

>  <SCORE>
-38.3927

>  <SCORE.INTER>
-19.1118

>  <SCORE.INTER.CONST>
1

>  <SCORE.INTER.POLAR>
-1.59754

>  <SCORE.INTER.ROT>
2

>  <SCORE.INTER.SOLV>
9.9082

>  <SCORE.INTER.VDW>
-15.6522

>  <SCORE.INTER.norm>
-1.73744

>  <SCORE.INTRA>
-0.394974

>  <SCORE.INTRA.DIHEDRAL>
0.175959

>  <SCORE.INTRA.DIHEDRAL.0>
0.626428

>  <SCORE.INTRA.POLAR>
0

>  <SCORE.INTRA.POLAR.0>
0

>  <SCORE.INTRA.REPUL>
0

>  <SCORE.INTRA.REPUL.0>
0

>  <SCORE.INTRA.SOLV>
0.0656368

>  <SCORE.INTRA.SOLV.lig_0>
-12.2445

>  <SCORE.INTRA.VDW>
-0.515772

>  <SCORE.INTRA.VDW.0>
0.77927

>  <SCORE.INTRA.norm>
-0.0359067

>  <SCORE.RESTR>
0

>  <SCORE.RESTR.CAVITY>
0

>  <SCORE.RESTR.norm>
0

>  <SCORE.SYSTEM>
-18.8859

>  <SCORE.SYSTEM.CONST>
0

>  <SCORE.SYSTEM.DIHEDRAL>
4.12467

>  <SCORE.SYSTEM.POLAR>
-3.01638

>  <SCORE.SYSTEM.SOLV>
-0.0745895

>  <SCORE.SYSTEM.VDW>
-3.88606

>  <SCORE.SYSTEM.norm>
-1.7169

>  <SCORE.heavy>
11

>  <SCORE.norm>
-3.49025

$$$$
P77714041
 OpenBabel12072022113D
libRbt.so/2013.1/901 2013/11/27
 12 12  0  0  0  0  0  0  0  0999 V2000
  -29.9526   17.6578  -17.4250 C   0  0  0  0  0  0  0  0  0  0  0  0
  -29.8491   16.4684  -16.4636 C   0  0  2  0  0  0  0  0  0  0  0  0
  -29.8627   16.9586  -15.0612 C   0  0  0  0  0  0  0  0  0  0  0  0
  -29.8700   17.3371  -13.9629 N   0  0  0  0  0  0  0  0  0  0  0  0
  -28.7013   15.6100  -16.8294 N   0  0  0  0  0  0  0  0  0  0  0  0
  -27.3993   16.0322  -16.3139 C   0  0  0  0  0  0  0  0  0  0  0  0
  -26.5327   14.8427  -16.6888 C   0  0  0  0  0  0  0  0  0  0  0  0
  -27.4399   13.6349  -16.4354 C   0  0  1  0  0  0  0  0  0  0  0  0
  -28.8626   14.2055  -16.4363 C   0  0  0  0  0  0  0  0  0  0  0  0
  -27.2479   12.5214  -17.4583 C   0  0  0  0  0  0  0  0  0  0  0  0
  -27.5462   12.9905  -18.7674 O   0  0  0  0  0  0  0  0  0  0  0  0
  -28.5092   12.9367  -18.8889 H   0  0  0  0  0  0  0  0  0  0  0  0
  2  3  1  0  0  0  0
  2  5  1  0  0  0  0
  2  1  1  6  0  0  0
  3  4  3  0  0  0  0
  5  6  1  0  0  0  0
  5  9  1  0  0  0  0
  6  7  1  0  0  0  0
  7  8  1  0  0  0  0
  8  9  1  0  0  0  0
  8 10  1  6  0  0  0
 10 11  1  0  0  0  0
 11 12  1  0  0  0  0
M  END
>  <CHROM.0>
-56.43872770,-32.85412332,-65.02529413,53.36683082,-55.08927912,-64.47377798
-66.07515338,-61.27257968,-169.25422334

>  <CHROM.1>
83.57597702,-60.47704729,-83.10200598,-28.45599410,15.24797274,-16.60155120
2.41592414,-0.87736402,1.20824698

>  <Name>
P77714041

>  <RI>
0

>  <Rbt.Current_Directory>
/home/fstefaniak/projects/zuza/docking/adenine/4TZX

>  <Rbt.Executable>
rbdock ($Id: //depot/dev/client3/rdock/2013.1/src/exe/rbdock.cxx#4 $)

>  <Rbt.Library>
libRbt.so (2013.1, Build901 2013/11/27)

>  <Rbt.Parameter_File>
/home/fstefaniak/progs/rDock//data/scripts/dock_solv.prm

>  <Rbt.Receptor>
4tzx.prm

>  <SCORE>
-37.9517

>  <SCORE.INTER>
-23.2994

>  <SCORE.INTER.CONST>
1

>  <SCORE.INTER.POLAR>
-2.32267

>  <SCORE.INTER.ROT>
2

>  <SCORE.INTER.SOLV>
10.7548

>  <SCORE.INTER.VDW>
-16.3089

>  <SCORE.INTER.norm>
-2.11812

>  <SCORE.INTRA>
1.23485

>  <SCORE.INTRA.DIHEDRAL>
2.62692

>  <SCORE.INTRA.DIHEDRAL.0>
0.626428

>  <SCORE.INTRA.POLAR>
0

>  <SCORE.INTRA.POLAR.0>
0

>  <SCORE.INTRA.REPUL>
0

>  <SCORE.INTRA.REPUL.0>
0

>  <SCORE.INTRA.SOLV>
0.714534

>  <SCORE.INTRA.SOLV.lig_0>
-12.2445

>  <SCORE.INTRA.VDW>
-0.435874

>  <SCORE.INTRA.VDW.0>
0.77927

>  <SCORE.INTRA.norm>
0.112259

>  <SCORE.RESTR>
0

>  <SCORE.RESTR.CAVITY>
0

>  <SCORE.RESTR.norm>
0

>  <SCORE.SYSTEM>
-15.8872

>  <SCORE.SYSTEM.CONST>
0

>  <SCORE.SYSTEM.DIHEDRAL>
6.38744

>  <SCORE.SYSTEM.POLAR>
-2.49846

>  <SCORE.SYSTEM.SOLV>
0.222008

>  <SCORE.SYSTEM.VDW>
-4.4664

>  <SCORE.SYSTEM.norm>
-1.44429

>  <SCORE.heavy>
11

>  <SCORE.norm>
-3.45015

$$$$
P77886738
 OpenBabel12072022113D
libRbt.so/2013.1/901 2013/11/27
 17 17  0  0  0  0  0  0  0  0999 V2000
  -30.9811   17.1801  -14.9872 C   0  0  0  0  0  0  0  0  0  0  0  0
  -31.6880   17.9421  -16.1060 C   0  0  0  0  0  0  0  0  0  0  0  0
  -30.7064   18.7587  -16.9497 C   0  0  0  0  0  0  0  0  0  0  0  0
  -29.5725   17.8903  -17.5026 C   0  0  1  0  0  0  0  0  0  0  0  0
  -28.8557   17.1471  -16.3504 C   0  0  1  0  0  0  0  0  0  0  0  0
  -29.8371   16.3153  -15.5151 C   0  0  0  0  0  0  0  0  0  0  0  0
  -27.6850   16.3305  -16.7878 N   0  0  0  0  0  0  0  0  0  0  0  0
  -26.4129   16.4115  -16.3696 C   0  0  0  0  0  0  0  0  0  0  0  0
  -25.4809   15.6714  -16.9843 N   0  3  0  0  0  0  0  0  0  0  0  0
  -24.5129   15.7107  -16.6922 H   0  0  0  0  0  0  0  0  0  0  0  0
  -25.7030   15.0563  -17.7552 H   0  0  0  0  0  0  0  0  0  0  0  0
  -26.0274   17.1962  -15.3737 N   0  0  0  0  0  0  0  0  0  0  0  0
  -30.1199   16.9486  -18.4367 O   0  0  0  0  0  0  0  0  0  0  0  0
  -27.8650   15.6728  -17.5342 H   0  0  0  0  0  0  0  0  0  0  0  0
  -26.7512   17.6109  -14.7781 H   0  0  0  0  0  0  0  0  0  0  0  0
  -25.0714   17.2837  -15.0674 H   0  0  0  0  0  0  0  0  0  0  0  0
  -29.3599   16.4554  -18.8106 H   0  0  0  0  0  0  0  0  0  0  0  0
  1  2  1  0  0  0  0
  1  6  1  0  0  0  0
  2  3  1  0  0  0  0
  3  4  1  0  0  0  0
  4 13  1  6  0  0  0
  4  5  1  0  0  0  0
  5  6  1  0  0  0  0
  5  7  1  6  0  0  0
  7  8  1  0  0  0  0
  7 14  1  0  0  0  0
  8  9  2  0  0  0  0
  8 12  1  0  0  0  0
  9 10  1  0  0  0  0
  9 11  1  0  0  0  0
 12 15  1  0  0  0  0
 12 16  1  0  0  0  0
 13 17  1  0  0  0  0
M  CHG  1   9   1
M  END
>  <CHROM.0>
-53.25007775,-50.18879520,-61.49114053,-43.11551243,-177.77551927,-58.81738261
-67.94307392,-58.88545742,-168.45496633

>  <CHROM.1>
176.30414288,122.94972339,-28.80651856,17.04385440,-16.51871777,3.13099770
0.28490869,-1.60104329

>  <Name>
P77886738

>  <RI>
0

>  <Rbt.Current_Directory>
/home/fstefaniak/projects/zuza/docking/adenine/4TZX

>  <Rbt.Executable>
rbdock ($Id: //depot/dev/client3/rdock/2013.1/src/exe/rbdock.cxx#4 $)

>  <Rbt.Library>
libRbt.so (2013.1, Build901 2013/11/27)

>  <Rbt.Parameter_File>
/home/fstefaniak/progs/rDock//data/scripts/dock_solv.prm

>  <Rbt.Receptor>
4tzx.prm

>  <SCORE>
-51.1485

>  <SCORE.INTER>
-31.7411

>  <SCORE.INTER.CONST>
1

>  <SCORE.INTER.POLAR>
-4.88624

>  <SCORE.INTER.ROT>
1

>  <SCORE.INTER.SOLV>
19.7168

>  <SCORE.INTER.VDW>
-15.7122

>  <SCORE.INTER.norm>
-2.88556

>  <SCORE.INTRA>
1.28645

>  <SCORE.INTRA.DIHEDRAL>
-0.284083

>  <SCORE.INTRA.DIHEDRAL.0>
2.69189

>  <SCORE.INTRA.POLAR>
0.938746

>  <SCORE.INTRA.POLAR.0>
-0.938746

>  <SCORE.INTRA.REPUL>
0

>  <SCORE.INTRA.REPUL.0>
0

>  <SCORE.INTRA.SOLV>
-2.15511

>  <SCORE.INTRA.SOLV.lig_0>
-28.3831

>  <SCORE.INTRA.VDW>
-0.685689

>  <SCORE.INTRA.VDW.0>
-0.235626

>  <SCORE.INTRA.norm>
0.11695

>  <SCORE.RESTR>
0

>  <SCORE.RESTR.CAVITY>
0

>  <SCORE.RESTR.norm>
0

>  <SCORE.SYSTEM>
-20.6938

>  <SCORE.SYSTEM.CONST>
0

>  <SCORE.SYSTEM.DIHEDRAL>
4.98047

>  <SCORE.SYSTEM.POLAR>
-3.10959

>  <SCORE.SYSTEM.SOLV>
0.0417922

>  <SCORE.SYSTEM.VDW>
-5.10464

>  <SCORE.SYSTEM.norm>
-1.88125

>  <SCORE.heavy>
11

>  <SCORE.norm>
-4.64986

$$$$
P77886738
 OpenBabel12072022113D
libRbt.so/2013.1/901 2013/11/27
 17 17  0  0  0  0  0  0  0  0999 V2000
  -31.0336   17.0710  -15.0306 C   0  0  0  0  0  0  0  0  0  0  0  0
  -31.7026   17.8874  -16.1342 C   0  0  0  0  0  0  0  0  0  0  0  0
  -30.6911   18.7307  -16.9139 C   0  0  0  0  0  0  0  0  0  0  0  0
  -29.5492   17.8766  -17.4726 C   0  0  1  0  0  0  0  0  0  0  0  0
  -28.8711   17.0775  -16.3345 C   0  0  1  0  0  0  0  0  0  0  0  0
  -29.8823   16.2193  -15.5638 C   0  0  0  0  0  0  0  0  0  0  0  0
  -27.6953   16.2697  -16.7745 N   0  0  0  0  0  0  0  0  0  0  0  0
  -26.4208   16.3678  -16.3673 C   0  0  0  0  0  0  0  0  0  0  0  0
  -25.4858   15.6326  -16.9833 N   0  3  0  0  0  0  0  0  0  0  0  0
  -24.5160   15.6847  -16.6994 H   0  0  0  0  0  0  0  0  0  0  0  0
  -25.7074   15.0086  -17.7472 H   0  0  0  0  0  0  0  0  0  0  0  0
  -26.0358   17.1650  -15.3812 N   0  0  0  0  0  0  0  0  0  0  0  0
  -30.0777   16.9815  -18.4617 O   0  0  0  0  0  0  0  0  0  0  0  0
  -27.8742   15.6038  -17.5140 H   0  0  0  0  0  0  0  0  0  0  0  0
  -26.7592   17.5769  -14.7833 H   0  0  0  0  0  0  0  0  0  0  0  0
  -25.0783   17.2653  -15.0833 H   0  0  0  0  0  0  0  0  0  0  0  0
  -29.3135   16.4858  -18.8237 H   0  0  0  0  0  0  0  0  0  0  0  0
  1  2  1  0  0  0  0
  1  6  1  0  0  0  0
  2  3  1  0  0  0  0
  3  4  1  0  0  0  0
  4 13  1  6  0  0  0
  4  5  1  0  0  0  0
  5  6  1  0  0  0  0
  5  7  1  6  0  0  0
  7  8  1  0  0  0  0
  7 14  1  0  0  0  0
  8  9  2  0  0  0  0
  8 12  1  0  0  0  0
  9 10  1  0  0  0  0
  9 11  1  0  0  0  0
 12 15  1  0  0  0  0
 12 16  1  0  0  0  0
 13 17  1  0  0  0  0
M  CHG  1   9   1
M  END
>  <CHROM.0>
-60.02723558,-49.04582042,62.51245325,-42.84907161,-56.24383159,-178.70992314
55.63675915,-59.83968303,-168.64172163

>  <CHROM.1>
177.34752858,119.16169796,-28.81281002,16.99886266,-16.52428522,3.11875650
0.28163342,-1.55587751

>  <Name>
P77886738

>  <RI>
0

>  <Rbt.Current_Directory>
/home/fstefaniak/projects/zuza/docking/adenine/4TZX

>  <Rbt.Executable>
rbdock ($Id: //depot/dev/client3/rdock/2013.1/src/exe/rbdock.cxx#4 $)

>  <Rbt.Library>
libRbt.so (2013.1, Build901 2013/11/27)

>  <Rbt.Parameter_File>
/home/fstefaniak/progs/rDock//data/scripts/dock_solv.prm

>  <Rbt.Receptor>
4tzx.prm

>  <SCORE>
-48.8802

>  <SCORE.INTER>
-31.6831

>  <SCORE.INTER.CONST>
1

>  <SCORE.INTER.POLAR>
-4.81176

>  <SCORE.INTER.ROT>
1

>  <SCORE.INTER.SOLV>
19.6503

>  <SCORE.INTER.VDW>
-15.8996

>  <SCORE.INTER.norm>
-2.88028

>  <SCORE.INTRA>
1.25627

>  <SCORE.INTRA.DIHEDRAL>
-0.268657

>  <SCORE.INTRA.DIHEDRAL.0>
2.69189

>  <SCORE.INTRA.POLAR>
0.938746

>  <SCORE.INTRA.POLAR.0>
-0.938746

>  <SCORE.INTRA.REPUL>
0

>  <SCORE.INTRA.REPUL.0>
0

>  <SCORE.INTRA.SOLV>
-2.17489

>  <SCORE.INTRA.SOLV.lig_0>
-28.3831

>  <SCORE.INTRA.VDW>
-0.713691

>  <SCORE.INTRA.VDW.0>
-0.235626

>  <SCORE.INTRA.norm>
0.114207

>  <SCORE.RESTR>
0

>  <SCORE.RESTR.CAVITY>
0

>  <SCORE.RESTR.norm>
0

>  <SCORE.SYSTEM>
-18.4534

>  <SCORE.SYSTEM.CONST>
0

>  <SCORE.SYSTEM.DIHEDRAL>
4.76136

>  <SCORE.SYSTEM.POLAR>
-3.03713

>  <SCORE.SYSTEM.SOLV>
-0.0112587

>  <SCORE.SYSTEM.VDW>
-3.76187

>  <SCORE.SYSTEM.norm>
-1.67758

>  <SCORE.heavy>
11

>  <SCORE.norm>
-4.44365

$$$$
P77886738
 OpenBabel12072022113D
libRbt.so/2013.1/901 2013/11/27
 17 17  0  0  0  0  0  0  0  0999 V2000
  -30.9927   17.1543  -15.0016 C   0  0  0  0  0  0  0  0  0  0  0  0
  -31.6871   17.9377  -16.1134 C   0  0  0  0  0  0  0  0  0  0  0  0
  -30.6947   18.7614  -16.9373 C   0  0  0  0  0  0  0  0  0  0  0  0
  -29.5620   17.8949  -17.4957 C   0  0  1  0  0  0  0  0  0  0  0  0
  -28.8578   17.1296  -16.3500 C   0  0  1  0  0  0  0  0  0  0  0  0
  -29.8501   16.2909  -15.5347 C   0  0  0  0  0  0  0  0  0  0  0  0
  -27.6889   16.3128  -16.7918 N   0  0  0  0  0  0  0  0  0  0  0  0
  -26.4156   16.3925  -16.3770 C   0  0  0  0  0  0  0  0  0  0  0  0
  -25.4857   15.6527  -16.9953 N   0  3  0  0  0  0  0  0  0  0  0  0
  -24.5169   15.6910  -16.7059 H   0  0  0  0  0  0  0  0  0  0  0  0
  -25.7103   15.0386  -17.7663 H   0  0  0  0  0  0  0  0  0  0  0  0
  -26.0268   17.1757  -15.3813 N   0  0  0  0  0  0  0  0  0  0  0  0
  -30.1082   16.9710  -18.4481 O   0  0  0  0  0  0  0  0  0  0  0  0
  -27.8714   15.6562  -17.5385 H   0  0  0  0  0  0  0  0  0  0  0  0
  -26.7487   17.5901  -14.7832 H   0  0  0  0  0  0  0  0  0  0  0  0
  -25.0698   17.2623  -15.0775 H   0  0  0  0  0  0  0  0  0  0  0  0
  -29.3584   16.4266  -18.7676 H   0  0  0  0  0  0  0  0  0  0  0  0
  1  2  1  0  0  0  0
  1  6  1  0  0  0  0
  2  3  1  0  0  0  0
  3  4  1  0  0  0  0
  4 13  1  6  0  0  0
  4  5  1  0  0  0  0
  5  6  1  0  0  0  0
  5  7  1  6  0  0  0
  7  8  1  0  0  0  0
  7 14  1  0  0  0  0
  8  9  2  0  0  0  0
  8 12  1  0  0  0  0
  9 10  1  0  0  0  0
  9 11  1  0  0  0  0
 12 15  1  0  0  0  0
 12 16  1  0  0  0  0
 13 17  1  0  0  0  0
M  CHG  1   9   1
M  END
>  <CHROM.0>
-60.14873956,-50.26489531,-61.51152127,49.99611236,59.11294101,-61.70280611
-66.09307390,-57.86082402,-168.86795091

>  <CHROM.1>
-178.95095541,121.90873601,-28.80670226,17.03318718,-16.52441714,3.12865551
0.28758848,-1.58648628

>  <Name>
P77886738

>  <RI>
0

>  <Rbt.Current_Directory>
/home/fstefaniak/projects/zuza/docking/adenine/4TZX

>  <Rbt.Executable>
rbdock ($Id: //depot/dev/client3/rdock/2013.1/src/exe/rbdock.cxx#4 $)

>  <Rbt.Library>
libRbt.so (2013.1, Build901 2013/11/27)

>  <Rbt.Parameter_File>
/home/fstefaniak/progs/rDock//data/scripts/dock_solv.prm

>  <Rbt.Receptor>
4tzx.prm

>  <SCORE>
-47.2169

>  <SCORE.INTER>
-31.6626

>  <SCORE.INTER.CONST>
1

>  <SCORE.INTER.POLAR>
-4.89522

>  <SCORE.INTER.ROT>
1

>  <SCORE.INTER.SOLV>
19.7205

>  <SCORE.INTER.VDW>
-15.6312

>  <SCORE.INTER.norm>
-2.87842

>  <SCORE.INTRA>
1.29941

>  <SCORE.INTRA.DIHEDRAL>
-0.332777

>  <SCORE.INTRA.DIHEDRAL.0>
2.69189

>  <SCORE.INTRA.POLAR>
0.938746

>  <SCORE.INTRA.POLAR.0>
-0.938746

>  <SCORE.INTRA.REPUL>
0

>  <SCORE.INTRA.REPUL.0>
0

>  <SCORE.INTRA.SOLV>
-2.15986

>  <SCORE.INTRA.SOLV.lig_0>
-28.3831

>  <SCORE.INTRA.VDW>
-0.646004

>  <SCORE.INTRA.VDW.0>
-0.235626

>  <SCORE.INTRA.norm>
0.118128

>  <SCORE.RESTR>
0

>  <SCORE.RESTR.CAVITY>
0

>  <SCORE.RESTR.norm>
0

>  <SCORE.SYSTEM>
-16.8536

>  <SCORE.SYSTEM.CONST>
0

>  <SCORE.SYSTEM.DIHEDRAL>
3.80197

>  <SCORE.SYSTEM.POLAR>
-2.48209

>  <SCORE.SYSTEM.SOLV>
-0.0578699

>  <SCORE.SYSTEM.VDW>
-4.21015

>  <SCORE.SYSTEM.norm>
-1.53215

>  <SCORE.heavy>
11

>  <SCORE.norm>
-4.29244

$$$$
P78162057
 OpenBabel12072022113D
libRbt.so/2013.1/901 2013/11/27
 11 11  0  0  0  0  0  0  0  0999 V2000
  -26.4785   13.1838  -16.0756 C   0  0  0  0  0  0  0  0  0  0  0  0
  -26.4683   14.6507  -16.5469 C   0  0  0  0  0  0  0  0  0  0  0  0
  -27.9708   14.4984  -16.8857 C   0  0  0  0  0  0  0  0  0  0  0  0
  -27.7197   12.9726  -16.9636 C   0  0  0  0  0  0  0  0  0  0  0  0
  -28.8781   14.8956  -15.7940 N   0  0  0  0  0  0  0  0  0  0  0  0
  -29.7182   15.9778  -15.7560 C   0  0  0  0  0  0  0  0  0  0  0  0
  -30.4355   16.1446  -14.7695 O   0  0  0  0  0  0  0  0  0  0  0  0
  -29.7329   16.9346  -16.9216 C   0  0  0  0  0  0  0  0  0  0  0  0
  -30.6569   18.0355  -16.6594 C   0  0  0  0  0  0  0  0  0  0  0  0
  -31.4066   18.9054  -16.4892 N   0  0  0  0  0  0  0  0  0  0  0  0
  -28.9628   14.3167  -14.9629 H   0  0  0  0  0  0  0  0  0  0  0  0
  1  2  1  0  0  0  0
  1  4  1  0  0  0  0
  2  3  1  0  0  0  0
  3  4  1  0  0  0  0
  3  5  1  0  0  0  0
  5  6  1  0  0  0  0
  5 11  1  0  0  0  0
  6  7  2  0  0  0  0
  6  8  1  0  0  0  0
  8  9  1  0  0  0  0
  9 10  3  0  0  0  0
M  END
>  <CHROM.0>
-59.32644515,-62.79222033,-64.06519279,-43.80599401,-58.12705983,-61.85018062
-66.59257053,-59.12665368,-169.27363352

>  <CHROM.1>
111.21850284,-178.00797412,-28.93848328,15.58521777,-16.25278517,0.57175544
-0.66608152,2.43376879

>  <Name>
P78162057

>  <RI>
0

>  <Rbt.Current_Directory>
/home/fstefaniak/projects/zuza/docking/adenine/4TZX

>  <Rbt.Executable>
rbdock ($Id: //depot/dev/client3/rdock/2013.1/src/exe/rbdock.cxx#4 $)

>  <Rbt.Library>
libRbt.so (2013.1, Build901 2013/11/27)

>  <Rbt.Parameter_File>
/home/fstefaniak/progs/rDock//data/scripts/dock_solv.prm

>  <Rbt.Receptor>
4tzx.prm

>  <SCORE>
-47.8572

>  <SCORE.INTER>
-27.2725

>  <SCORE.INTER.CONST>
1

>  <SCORE.INTER.POLAR>
-2.9818

>  <SCORE.INTER.ROT>
2

>  <SCORE.INTER.SOLV>
9.79994

>  <SCORE.INTER.VDW>
-16.4423

>  <SCORE.INTER.norm>
-2.72725

>  <SCORE.INTRA>
0.574181

>  <SCORE.INTRA.DIHEDRAL>
-0.0321475

>  <SCORE.INTRA.DIHEDRAL.0>
2.59669

>  <SCORE.INTRA.POLAR>
0

>  <SCORE.INTRA.POLAR.0>
0

>  <SCORE.INTRA.REPUL>
0

>  <SCORE.INTRA.REPUL.0>
0

>  <SCORE.INTRA.SOLV>
-0.0162878

>  <SCORE.INTRA.SOLV.lig_0>
-12.6985

>  <SCORE.INTRA.VDW>
0.598399

>  <SCORE.INTRA.VDW.0>
-1.12437

>  <SCORE.INTRA.norm>
0.0574181

>  <SCORE.RESTR>
0

>  <SCORE.RESTR.CAVITY>
0

>  <SCORE.RESTR.norm>
0

>  <SCORE.SYSTEM>
-21.159

>  <SCORE.SYSTEM.CONST>
0

>  <SCORE.SYSTEM.DIHEDRAL>
4.16254

>  <SCORE.SYSTEM.POLAR>
-3.0348

>  <SCORE.SYSTEM.SOLV>
0.189244

>  <SCORE.SYSTEM.VDW>
-5.44057

>  <SCORE.SYSTEM.norm>
-2.1159

>  <SCORE.heavy>
10

>  <SCORE.norm>
-4.78572

$$$$
P78162057
 OpenBabel12072022113D
libRbt.so/2013.1/901 2013/11/27
 11 11  0  0  0  0  0  0  0  0999 V2000
  -26.5984   13.0292  -16.1148 C   0  0  0  0  0  0  0  0  0  0  0  0
  -26.4242   14.5325  -16.4045 C   0  0  0  0  0  0  0  0  0  0  0  0
  -27.9016   14.5624  -16.8648 C   0  0  0  0  0  0  0  0  0  0  0  0
  -27.7765   13.0384  -17.1075 C   0  0  0  0  0  0  0  0  0  0  0  0
  -28.8575   14.9174  -15.8004 N   0  0  0  0  0  0  0  0  0  0  0  0
  -29.7399   15.9660  -15.7836 C   0  0  0  0  0  0  0  0  0  0  0  0
  -30.4937   16.0988  -14.8195 O   0  0  0  0  0  0  0  0  0  0  0  0
  -29.7553   16.9285  -16.9444 C   0  0  0  0  0  0  0  0  0  0  0  0
  -30.6369   18.0565  -16.6533 C   0  0  0  0  0  0  0  0  0  0  0  0
  -31.3542   18.9485  -16.4596 N   0  0  0  0  0  0  0  0  0  0  0  0
  -28.9456   14.3306  -14.9752 H   0  0  0  0  0  0  0  0  0  0  0  0
  1  2  1  0  0  0  0
  1  4  1  0  0  0  0
  2  3  1  0  0  0  0
  3  4  1  0  0  0  0
  3  5  1  0  0  0  0
  5  6  1  0  0  0  0
  5 11  1  0  0  0  0
  6  7  2  0  0  0  0
  6  8  1  0  0  0  0
  8  9  1  0  0  0  0
  9 10  3  0  0  0  0
M  END
>  <CHROM.0>
-60.15923614,-60.62226827,-66.12832914,-43.12760018,-59.22837311,-65.74169609
-67.05567902,-60.42919542,-168.67055073

>  <CHROM.1>
121.34878394,-172.79192968,-28.94706207,15.57180119,-16.26268791,0.58176369
-0.67370677,2.44135206

>  <Name>
P78162057

>  <RI>
0

>  <Rbt.Current_Directory>
/home/fstefaniak/projects/zuza/docking/adenine/4TZX

>  <Rbt.Executable>
rbdock ($Id: //depot/dev/client3/rdock/2013.1/src/exe/rbdock.cxx#4 $)

>  <Rbt.Library>
libRbt.so (2013.1, Build901 2013/11/27)

>  <Rbt.Parameter_File>
/home/fstefaniak/progs/rDock//data/scripts/dock_solv.prm

>  <Rbt.Receptor>
4tzx.prm

>  <SCORE>
-47.7895

>  <SCORE.INTER>
-27.1618

>  <SCORE.INTER.CONST>
1

>  <SCORE.INTER.POLAR>
-2.9833

>  <SCORE.INTER.ROT>
2

>  <SCORE.INTER.SOLV>
9.8201

>  <SCORE.INTER.VDW>
-16.3702

>  <SCORE.INTER.norm>
-2.71618

>  <SCORE.INTRA>
0.558444

>  <SCORE.INTRA.DIHEDRAL>
-0.0580263

>  <SCORE.INTRA.DIHEDRAL.0>
2.59669

>  <SCORE.INTRA.POLAR>
0

>  <SCORE.INTRA.POLAR.0>
0

>  <SCORE.INTRA.REPUL>
0

>  <SCORE.INTRA.REPUL.0>
0

>  <SCORE.INTRA.SOLV>
-0.0207291

>  <SCORE.INTRA.SOLV.lig_0>
-12.6985

>  <SCORE.INTRA.VDW>
0.597821

>  <SCORE.INTRA.VDW.0>
-1.12437

>  <SCORE.INTRA.norm>
0.0558444

>  <SCORE.RESTR>
0

>  <SCORE.RESTR.CAVITY>
0

>  <SCORE.RESTR.norm>
0

>  <SCORE.SYSTEM>
-21.1862

>  <SCORE.SYSTEM.CONST>
0

>  <SCORE.SYSTEM.DIHEDRAL>
4.51759

>  <SCORE.SYSTEM.POLAR>
-3.04817

>  <SCORE.SYSTEM.SOLV>
0.173927

>  <SCORE.SYSTEM.VDW>
-5.52738

>  <SCORE.SYSTEM.norm>
-2.11862

>  <SCORE.heavy>
10

>  <SCORE.norm>
-4.77895

$$$$
P78162057
 OpenBabel12072022113D
libRbt.so/2013.1/901 2013/11/27
 11 11  0  0  0  0  0  0  0  0999 V2000
  -26.3131   13.4232  -16.1202 C   0  0  0  0  0  0  0  0  0  0  0  0
  -26.5203   14.8097  -16.7596 C   0  0  0  0  0  0  0  0  0  0  0  0
  -28.0194   14.4571  -16.9144 C   0  0  0  0  0  0  0  0  0  0  0  0
  -27.5982   12.9692  -16.8385 C   0  0  0  0  0  0  0  0  0  0  0  0
  -28.8611   14.8941  -15.7860 N   0  0  0  0  0  0  0  0  0  0  0  0
  -29.6602   16.0055  -15.7193 C   0  0  0  0  0  0  0  0  0  0  0  0
  -30.3251   16.2048  -14.7025 O   0  0  0  0  0  0  0  0  0  0  0  0
  -29.6951   16.9536  -16.8915 C   0  0  0  0  0  0  0  0  0  0  0  0
  -30.6104   18.0594  -16.6194 C   0  0  0  0  0  0  0  0  0  0  0  0
  -31.3539   18.9329  -16.4409 N   0  0  0  0  0  0  0  0  0  0  0  0
  -28.9276   14.3246  -14.9468 H   0  0  0  0  0  0  0  0  0  0  0  0
  1  2  1  0  0  0  0
  1  4  1  0  0  0  0
  2  3  1  0  0  0  0
  3  4  1  0  0  0  0
  3  5  1  0  0  0  0
  5  6  1  0  0  0  0
  5 11  1  0  0  0  0
  6  7  2  0  0  0  0
  6  8  1  0  0  0  0
  8  9  1  0  0  0  0
  9 10  3  0  0  0  0
M  END
>  <CHROM.0>
-61.05549981,-59.73167430,-64.31737132,-42.79751420,-178.60048148,-59.32643560
-63.42137401,-60.32614490,-169.28277747

>  <CHROM.1>
99.99263156,179.62093588,-28.88620118,15.63751939,-16.24563976,-0.56056888
0.66653009,-0.69904318

>  <Name>
P78162057

>  <RI>
0

>  <Rbt.Current_Directory>
/home/fstefaniak/projects/zuza/docking/adenine/4TZX

>  <Rbt.Executable>
rbdock ($Id: //depot/dev/client3/rdock/2013.1/src/exe/rbdock.cxx#4 $)

>  <Rbt.Library>
libRbt.so (2013.1, Build901 2013/11/27)

>  <Rbt.Parameter_File>
/home/fstefaniak/progs/rDock//data/scripts/dock_solv.prm

>  <Rbt.Receptor>
4tzx.prm

>  <SCORE>
-47.7206

>  <SCORE.INTER>
-27.0901

>  <SCORE.INTER.CONST>
1

>  <SCORE.INTER.POLAR>
-2.99615

>  <SCORE.INTER.ROT>
2

>  <SCORE.INTER.SOLV>
9.83585

>  <SCORE.INTER.VDW>
-16.2849

>  <SCORE.INTER.norm>
-2.70901

>  <SCORE.INTRA>
0.598607

>  <SCORE.INTRA.DIHEDRAL>
-0.011571

>  <SCORE.INTRA.DIHEDRAL.0>
2.59669

>  <SCORE.INTRA.POLAR>
0

>  <SCORE.INTRA.POLAR.0>
0

>  <SCORE.INTRA.REPUL>
0

>  <SCORE.INTRA.REPUL.0>
0

>  <SCORE.INTRA.SOLV>
-0.00506601

>  <SCORE.INTRA.SOLV.lig_0>
-12.6985

>  <SCORE.INTRA.VDW>
0.606925

>  <SCORE.INTRA.VDW.0>
-1.12437

>  <SCORE.INTRA.norm>
0.0598607

>  <SCORE.RESTR>
0

>  <SCORE.RESTR.CAVITY>
0

>  <SCORE.RESTR.norm>
0

>  <SCORE.SYSTEM>
-21.229

>  <SCORE.SYSTEM.CONST>
0

>  <SCORE.SYSTEM.DIHEDRAL>
4.11244

>  <SCORE.SYSTEM.POLAR>
-3.04329

>  <SCORE.SYSTEM.SOLV>
0.0152662

>  <SCORE.SYSTEM.VDW>
-5.3843

>  <SCORE.SYSTEM.norm>
-2.1229

>  <SCORE.heavy>
10

>  <SCORE.norm>
-4.77206

$$$$
P78273403
 OpenBabel12072022113D
libRbt.so/2013.1/901 2013/11/27
 13 13  0  0  0  0  0  0  0  0999 V2000
  -28.6625   15.0055  -16.4761 C   0  0  0  0  0  0  0  0  0  0  0  0
  -29.6723   15.8116  -15.7320 C   0  0  1  0  0  0  0  0  0  0  0  0
  -29.2824   17.1277  -15.1194 C   0  0  0  0  0  0  0  0  0  0  0  0
  -30.2387   17.0977  -16.2828 C   0  0  1  0  0  0  0  0  0  0  0  0
  -29.8541   17.6011  -17.5600 N   0  0  0  0  0  0  0  0  0  0  0  0
  -30.5830   18.4176  -18.3807 C   0  0  0  0  0  0  0  0  0  0  0  0
  -30.2054   18.6678  -19.5236 O   0  0  0  0  0  0  0  0  0  0  0  0
  -31.7600   18.9049  -17.8442 N   0  0  0  0  0  0  0  0  0  0  0  0
  -32.9850   18.6239  -18.5002 N   0  0  0  0  0  0  0  0  0  0  0  0
  -29.0271   17.2240  -18.0079 H   0  0  0  0  0  0  0  0  0  0  0  0
  -31.6961   19.7680  -17.3127 H   0  0  0  0  0  0  0  0  0  0  0  0
  -32.8307   17.7857  -19.0685 H   0  0  0  0  0  0  0  0  0  0  0  0
  -33.1163   19.3624  -19.2054 H   0  0  0  0  0  0  0  0  0  0  0  0
  2  1  1  6  0  0  0
  2  3  1  0  0  0  0
  2  4  1  0  0  0  0
  3  4  1  0  0  0  0
  4  5  1  6  0  0  0
  5  6  1  0  0  0  0
  5 10  1  0  0  0  0
  6  7  2  0  0  0  0
  6  8  1  0  0  0  0
  8  9  1  0  0  0  0
  8 11  1  0  0  0  0
  9 12  1  0  0  0  0
  9 13  1  0  0  0  0
M  END
>  <CHROM.0>
-60.08690415,-68.37708600,-65.38099910,-43.21520178,-60.65894502,-61.25408445
-68.18183921,-59.58797182,-169.19167094

>  <CHROM.1>
154.08418802,-121.32885795,22.57381340,-30.38785466,17.50596457,-17.33431019
-0.89797810,0.53181590,-1.16610742

>  <Name>
P78273403

>  <RI>
0

>  <Rbt.Current_Directory>
/home/fstefaniak/projects/zuza/docking/adenine/4TZX

>  <Rbt.Executable>
rbdock ($Id: //depot/dev/client3/rdock/2013.1/src/exe/rbdock.cxx#4 $)

>  <Rbt.Library>
libRbt.so (2013.1, Build901 2013/11/27)

>  <Rbt.Parameter_File>
/home/fstefaniak/progs/rDock//data/scripts/dock_solv.prm

>  <Rbt.Receptor>
4tzx.prm

>  <SCORE>
-59.7604

>  <SCORE.INTER>
-37.8883

>  <SCORE.INTER.CONST>
1

>  <SCORE.INTER.POLAR>
-5.22113

>  <SCORE.INTER.ROT>
3

>  <SCORE.INTER.SOLV>
14.062

>  <SCORE.INTER.VDW>
-18.1424

>  <SCORE.INTER.norm>
-4.20981

>  <SCORE.INTRA>
-0.728004

>  <SCORE.INTRA.DIHEDRAL>
-0.898995

>  <SCORE.INTRA.DIHEDRAL.0>
2.96833

>  <SCORE.INTRA.POLAR>
0

>  <SCORE.INTRA.POLAR.0>
0

>  <SCORE.INTRA.REPUL>
0

>  <SCORE.INTRA.REPUL.0>
0

>  <SCORE.INTRA.SOLV>
-0.0772948

>  <SCORE.INTRA.SOLV.lig_0>
-18.0437

>  <SCORE.INTRA.VDW>
-0.239859

>  <SCORE.INTRA.VDW.0>
-0.607915

>  <SCORE.INTRA.norm>
-0.0808893

>  <SCORE.RESTR>
0

>  <SCORE.RESTR.CAVITY>
0

>  <SCORE.RESTR.norm>
0

>  <SCORE.SYSTEM>
-21.1441

>  <SCORE.SYSTEM.CONST>
0

>  <SCORE.SYSTEM.DIHEDRAL>
4.68206

>  <SCORE.SYSTEM.POLAR>
-3.04266

>  <SCORE.SYSTEM.SOLV>
0.17526

>  <SCORE.SYSTEM.VDW>
-5.57299

>  <SCORE.SYSTEM.norm>
-2.34934

>  <SCORE.heavy>
9

>  <SCORE.norm>
-6.64004

$$$$
P78273403
 OpenBabel12072022113D
libRbt.so/2013.1/901 2013/11/27
 13 13  0  0  0  0  0  0  0  0999 V2000
  -28.6375   15.0783  -16.3981 C   0  0  0  0  0  0  0  0  0  0  0  0
  -29.6862   15.8634  -15.6863 C   0  0  1  0  0  0  0  0  0  0  0  0
  -29.3573   17.2135  -15.1131 C   0  0  0  0  0  0  0  0  0  0  0  0
  -30.3025   17.1064  -16.2810 C   0  0  1  0  0  0  0  0  0  0  0  0
  -29.9297   17.5854  -17.5710 N   0  0  0  0  0  0  0  0  0  0  0  0
  -30.6534   18.4111  -18.3874 C   0  0  0  0  0  0  0  0  0  0  0  0
  -30.2914   18.6387  -19.5400 O   0  0  0  0  0  0  0  0  0  0  0  0
  -31.8072   18.9341  -17.8345 N   0  0  0  0  0  0  0  0  0  0  0  0
  -33.0511   18.6779  -18.4646 N   0  0  0  0  0  0  0  0  0  0  0  0
  -29.1212   17.1825  -18.0299 H   0  0  0  0  0  0  0  0  0  0  0  0
  -31.7113   19.8008  -17.3137 H   0  0  0  0  0  0  0  0  0  0  0  0
  -32.9510   17.7908  -18.9671 H   0  0  0  0  0  0  0  0  0  0  0  0
  -33.1426   19.3667  -19.2243 H   0  0  0  0  0  0  0  0  0  0  0  0
  2  1  1  6  0  0  0
  2  3  1  0  0  0  0
  2  4  1  0  0  0  0
  3  4  1  0  0  0  0
  4  5  1  6  0  0  0
  5  6  1  0  0  0  0
  5 10  1  0  0  0  0
  6  7  2  0  0  0  0
  6  8  1  0  0  0  0
  8  9  1  0  0  0  0
  8 11  1  0  0  0  0
  9 12  1  0  0  0  0
  9 13  1  0  0  0  0
M  END
>  <CHROM.0>
-60.19298190,-62.93936514,-52.93099664,-41.18679870,-58.37222034,-58.20620482
-67.17012791,-62.44287833,-168.97961251

>  <CHROM.1>
158.40596813,-121.37620240,26.93085373,-30.44061134,17.53298385,-17.31822345
-0.87701777,0.54657932,-1.20121908

>  <Name>
P78273403

>  <RI>
0

>  <Rbt.Current_Directory>
/home/fstefaniak/projects/zuza/docking/adenine/4TZX

>  <Rbt.Executable>
rbdock ($Id: //depot/dev/client3/rdock/2013.1/src/exe/rbdock.cxx#4 $)

>  <Rbt.Library>
libRbt.so (2013.1, Build901 2013/11/27)

>  <Rbt.Parameter_File>
/home/fstefaniak/progs/rDock//data/scripts/dock_solv.prm

>  <Rbt.Receptor>
4tzx.prm

>  <SCORE>
-59.3042

>  <SCORE.INTER>
-37.7086

>  <SCORE.INTER.CONST>
1

>  <SCORE.INTER.POLAR>
-5.20364

>  <SCORE.INTER.ROT>
3

>  <SCORE.INTER.SOLV>
14.04

>  <SCORE.INTER.VDW>
-18.0736

>  <SCORE.INTER.norm>
-4.18984

>  <SCORE.INTRA>
-0.771211

>  <SCORE.INTRA.DIHEDRAL>
-0.974134

>  <SCORE.INTRA.DIHEDRAL.0>
2.96833

>  <SCORE.INTRA.POLAR>
0

>  <SCORE.INTRA.POLAR.0>
0

>  <SCORE.INTRA.REPUL>
0

>  <SCORE.INTRA.REPUL.0>
0

>  <SCORE.INTRA.SOLV>
-0.0683515

>  <SCORE.INTRA.SOLV.lig_0>
-18.0437

>  <SCORE.INTRA.VDW>
-0.249968

>  <SCORE.INTRA.VDW.0>
-0.607915

>  <SCORE.INTRA.norm>
-0.0856901

>  <SCORE.RESTR>
0

>  <SCORE.RESTR.CAVITY>
0

>  <SCORE.RESTR.norm>
0

>  <SCORE.SYSTEM>
-20.8244

>  <SCORE.SYSTEM.CONST>
0

>  <SCORE.SYSTEM.DIHEDRAL>
4.77787

>  <SCORE.SYSTEM.POLAR>
-3.1263

>  <SCORE.SYSTEM.SOLV>
0.206226

>  <SCORE.SYSTEM.VDW>
-5.12332

>  <SCORE.SYSTEM.norm>
-2.31382

>  <SCORE.heavy>
9

>  <SCORE.norm>
-6.58936

$$$$
P78273403
 OpenBabel12072022113D
libRbt.so/2013.1/901 2013/11/27
 13 13  0  0  0  0  0  0  0  0999 V2000
  -28.6944   15.0163  -16.4692 C   0  0  0  0  0  0  0  0  0  0  0  0
  -29.6556   15.8648  -15.7082 C   0  0  1  0  0  0  0  0  0  0  0  0
  -29.2091   17.1814  -15.1365 C   0  0  0  0  0  0  0  0  0  0  0  0
  -30.2054   17.1552  -16.2660 C   0  0  1  0  0  0  0  0  0  0  0  0
  -29.8513   17.6223  -17.5656 N   0  0  0  0  0  0  0  0  0  0  0  0
  -30.6082   18.3987  -18.3998 C   0  0  0  0  0  0  0  0  0  0  0  0
  -30.2545   18.6171  -19.5568 O   0  0  0  0  0  0  0  0  0  0  0  0
  -31.7842   18.8836  -17.8591 N   0  0  0  0  0  0  0  0  0  0  0  0
  -33.0089   18.6176  -18.5218 N   0  0  0  0  0  0  0  0  0  0  0  0
  -29.0256   17.2445  -18.0153 H   0  0  0  0  0  0  0  0  0  0  0  0
  -31.7176   19.7387  -17.3151 H   0  0  0  0  0  0  0  0  0  0  0  0
  -32.8631   17.7750  -19.0859 H   0  0  0  0  0  0  0  0  0  0  0  0
  -33.1252   19.3552  -19.2307 H   0  0  0  0  0  0  0  0  0  0  0  0
  2  1  1  6  0  0  0
  2  3  1  0  0  0  0
  2  4  1  0  0  0  0
  3  4  1  0  0  0  0
  4  5  1  6  0  0  0
  5  6  1  0  0  0  0
  5 10  1  0  0  0  0
  6  7  2  0  0  0  0
  6  8  1  0  0  0  0
  8  9  1  0  0  0  0
  8 11  1  0  0  0  0
  9 12  1  0  0  0  0
  9 13  1  0  0  0  0
M  END
>  <CHROM.0>
-56.67100771,-61.93394629,-63.79990638,-41.26504458,62.36496611,-58.79606414
-65.11203663,-174.15427923,-167.00432970

>  <CHROM.1>
151.24506177,-124.51836792,23.78006400,-30.39237712,17.51526528,-17.34212913
-0.87611492,0.54565770,-1.20966983

>  <Name>
P78273403

>  <RI>
0

>  <Rbt.Current_Directory>
/home/fstefaniak/projects/zuza/docking/adenine/4TZX

>  <Rbt.Executable>
rbdock ($Id: //depot/dev/client3/rdock/2013.1/src/exe/rbdock.cxx#4 $)

>  <Rbt.Library>
libRbt.so (2013.1, Build901 2013/11/27)

>  <Rbt.Parameter_File>
/home/fstefaniak/progs/rDock//data/scripts/dock_solv.prm

>  <Rbt.Receptor>
4tzx.prm

>  <SCORE>
-58.6078

>  <SCORE.INTER>
-37.8137

>  <SCORE.INTER.CONST>
1

>  <SCORE.INTER.POLAR>
-5.23101

>  <SCORE.INTER.ROT>
3

>  <SCORE.INTER.SOLV>
14.0336

>  <SCORE.INTER.VDW>
-18.0503

>  <SCORE.INTER.norm>
-4.20153

>  <SCORE.INTRA>
-0.761044

>  <SCORE.INTRA.DIHEDRAL>
-0.929589

>  <SCORE.INTRA.DIHEDRAL.0>
2.96833

>  <SCORE.INTRA.POLAR>
0

>  <SCORE.INTRA.POLAR.0>
0

>  <SCORE.INTRA.REPUL>
0

>  <SCORE.INTRA.REPUL.0>
0

>  <SCORE.INTRA.SOLV>
-0.0885818

>  <SCORE.INTRA.SOLV.lig_0>
-18.0437

>  <SCORE.INTRA.VDW>
-0.251959

>  <SCORE.INTRA.VDW.0>
-0.607915

>  <SCORE.INTRA.norm>
-0.0845605

>  <SCORE.RESTR>
0

>  <SCORE.RESTR.CAVITY>
0

>  <SCORE.RESTR.norm>
0

>  <SCORE.SYSTEM>
-20.033

>  <SCORE.SYSTEM.CONST>
0

>  <SCORE.SYSTEM.DIHEDRAL>
4.85204

>  <SCORE.SYSTEM.POLAR>
-3.10134

>  <SCORE.SYSTEM.SOLV>
-0.143993

>  <SCORE.SYSTEM.VDW>
-4.58689

>  <SCORE.SYSTEM.norm>
-2.22589

>  <SCORE.heavy>
9

>  <SCORE.norm>
-6.51198

$$$$
P79172745
 OpenBabel12072022113D
libRbt.so/2013.1/901 2013/11/27
 13 12  0  0  0  0  0  0  0  0999 V2000
  -31.0724   16.8753  -15.3208 C   0  0  0  0  0  0  0  0  0  0  0  0
  -29.6902   16.6176  -15.9353 C   0  0  0  0  0  0  0  0  0  0  0  0
  -28.6083   17.4357  -15.2197 C   0  0  0  0  0  0  0  0  0  0  0  0
  -29.3650   15.1199  -15.7759 C   0  0  0  0  0  0  0  0  0  0  0  0
  -29.6898   16.9069  -17.3719 N   0  0  0  0  0  0  0  0  0  0  0  0
  -30.0945   18.0752  -17.9412 C   0  0  0  0  0  0  0  0  0  0  0  0
  -30.4263   19.1658  -17.3296 N   0  0  0  0  0  0  0  0  0  0  0  0
  -30.8133   20.1568  -18.2481 O   0  0  0  0  0  0  0  0  0  0  0  0
  -30.1160   17.9290  -19.2931 N   0  0  0  0  0  0  0  0  0  0  0  0
  -28.8706   16.5455  -17.8483 H   0  0  0  0  0  0  0  0  0  0  0  0
  -31.7091   20.3780  -17.9331 H   0  0  0  0  0  0  0  0  0  0  0  0
  -29.3693   17.3237  -19.6099 H   0  0  0  0  0  0  0  0  0  0  0  0
  -31.0177   17.5282  -19.5430 H   0  0  0  0  0  0  0  0  0  0  0  0
  1  2  1  0  0  0  0
  2  3  1  0  0  0  0
  2  4  1  0  0  0  0
  2  5  1  0  0  0  0
  5  6  1  0  0  0  0
  5 10  1  0  0  0  0
  6  7  2  0  0  0  0
  6  9  1  0  0  0  0
  7  8  1  0  0  0  0
  8 11  1  0  0  0  0
  9 12  1  0  0  0  0
  9 13  1  0  0  0  0
M  END
>  <CHROM.0>
-60.31793437,48.40331597,-62.11293573,-41.89563983,63.00787492,-60.64472936
-69.18701423,-58.17492272,-168.77874876

>  <CHROM.1>
53.45548696,6.98138620,-34.95134061,123.69495231,-30.00232160,17.61814751
-16.97714307,0.74659829,-1.25030497,1.59677017

>  <Name>
P79172745

>  <RI>
0

>  <Rbt.Current_Directory>
/home/fstefaniak/projects/zuza/docking/adenine/4TZX

>  <Rbt.Executable>
rbdock ($Id: //depot/dev/client3/rdock/2013.1/src/exe/rbdock.cxx#4 $)

>  <Rbt.Library>
libRbt.so (2013.1, Build901 2013/11/27)

>  <Rbt.Parameter_File>
/home/fstefaniak/progs/rDock//data/scripts/dock_solv.prm

>  <Rbt.Receptor>
4tzx.prm

>  <SCORE>
-48.2776

>  <SCORE.INTER>
-28.9041

>  <SCORE.INTER.CONST>
1

>  <SCORE.INTER.POLAR>
-4.16996

>  <SCORE.INTER.ROT>
3

>  <SCORE.INTER.SOLV>
12.8201

>  <SCORE.INTER.VDW>
-15.2429

>  <SCORE.INTER.norm>
-3.21157

>  <SCORE.INTRA>
-0.026161

>  <SCORE.INTRA.DIHEDRAL>
-1.48707

>  <SCORE.INTRA.DIHEDRAL.0>
3.24032

>  <SCORE.INTRA.POLAR>
0.209008

>  <SCORE.INTRA.POLAR.0>
-0.209008

>  <SCORE.INTRA.REPUL>
0

>  <SCORE.INTRA.REPUL.0>
0

>  <SCORE.INTRA.SOLV>
-0.00162517

>  <SCORE.INTRA.SOLV.lig_0>
-9.84243

>  <SCORE.INTRA.VDW>
0.00755964

>  <SCORE.INTRA.VDW.0>
0.318508

>  <SCORE.INTRA.norm>
-0.00290678

>  <SCORE.RESTR>
0

>  <SCORE.RESTR.CAVITY>
0

>  <SCORE.RESTR.norm>
0

>  <SCORE.SYSTEM>
-19.3473

>  <SCORE.SYSTEM.CONST>
0

>  <SCORE.SYSTEM.DIHEDRAL>
5.22329

>  <SCORE.SYSTEM.POLAR>
-3.11976

>  <SCORE.SYSTEM.SOLV>
0.0737049

>  <SCORE.SYSTEM.VDW>
-4.26468

>  <SCORE.SYSTEM.norm>
-2.1497

>  <SCORE.heavy>
9

>  <SCORE.norm>
-5.36418

$$$$
P79172745
 OpenBabel12072022113D
libRbt.so/2013.1/901 2013/11/27
 13 12  0  0  0  0  0  0  0  0999 V2000
  -29.3105   15.1261  -15.7465 C   0  0  0  0  0  0  0  0  0  0  0  0
  -29.6500   16.6041  -15.9801 C   0  0  0  0  0  0  0  0  0  0  0  0
  -31.0303   16.9491  -15.4079 C   0  0  0  0  0  0  0  0  0  0  0  0
  -28.5885   17.4602  -15.2625 C   0  0  0  0  0  0  0  0  0  0  0  0
  -29.5831   16.9416  -17.4045 N   0  0  0  0  0  0  0  0  0  0  0  0
  -30.0521   18.0895  -17.9658 C   0  0  0  0  0  0  0  0  0  0  0  0
  -30.4159   19.1665  -17.3483 N   0  0  0  0  0  0  0  0  0  0  0  0
  -30.8682   20.1370  -18.2588 O   0  0  0  0  0  0  0  0  0  0  0  0
  -30.1006   17.9384  -19.3165 N   0  0  0  0  0  0  0  0  0  0  0  0
  -28.7063   16.6688  -17.8354 H   0  0  0  0  0  0  0  0  0  0  0  0
  -31.6833   20.4493  -17.8247 H   0  0  0  0  0  0  0  0  0  0  0  0
  -29.3434   17.3551  -19.6493 H   0  0  0  0  0  0  0  0  0  0  0  0
  -30.9952   17.5096  -19.5444 H   0  0  0  0  0  0  0  0  0  0  0  0
  1  2  1  0  0  0  0
  2  3  1  0  0  0  0
  2  4  1  0  0  0  0
  2  5  1  0  0  0  0
  5  6  1  0  0  0  0
  5 10  1  0  0  0  0
  6  7  2  0  0  0  0
  6  9  1  0  0  0  0
  7  8  1  0  0  0  0
  8 11  1  0  0  0  0
  9 12  1  0  0  0  0
  9 13  1  0  0  0  0
M  END
>  <CHROM.0>
-60.44017855,45.72978000,-61.56874347,-43.97178613,-56.87713213,-61.42768842
-69.11779627,58.63794836,-169.73022034

>  <CHROM.1>
167.66264061,13.05987960,-34.19618763,134.59069503,-29.97212563,17.63416526
-17.00371734,-0.77144839,1.21299250,-1.51080140

>  <Name>
P79172745

>  <RI>
0

>  <Rbt.Current_Directory>
/home/fstefaniak/projects/zuza/docking/adenine/4TZX

>  <Rbt.Executable>
rbdock ($Id: //depot/dev/client3/rdock/2013.1/src/exe/rbdock.cxx#4 $)

>  <Rbt.Library>
libRbt.so (2013.1, Build901 2013/11/27)

>  <Rbt.Parameter_File>
/home/fstefaniak/progs/rDock//data/scripts/dock_solv.prm

>  <Rbt.Receptor>
4tzx.prm

>  <SCORE>
-47.6459

>  <SCORE.INTER>
-28.8799

>  <SCORE.INTER.CONST>
1

>  <SCORE.INTER.POLAR>
-4.15073

>  <SCORE.INTER.ROT>
3

>  <SCORE.INTER.SOLV>
12.8542

>  <SCORE.INTER.VDW>
-15.3022

>  <SCORE.INTER.norm>
-3.20887

>  <SCORE.INTRA>
0.43462

>  <SCORE.INTRA.DIHEDRAL>
-1.09687

>  <SCORE.INTRA.DIHEDRAL.0>
3.24032

>  <SCORE.INTRA.POLAR>
0.209008

>  <SCORE.INTRA.POLAR.0>
-0.209008

>  <SCORE.INTRA.REPUL>
0

>  <SCORE.INTRA.REPUL.0>
0

>  <SCORE.INTRA.SOLV>
0.0178514

>  <SCORE.INTRA.SOLV.lig_0>
-9.84243

>  <SCORE.INTRA.VDW>
0.263504

>  <SCORE.INTRA.VDW.0>
0.318508

>  <SCORE.INTRA.norm>
0.0482911

>  <SCORE.RESTR>
0

>  <SCORE.RESTR.CAVITY>
0

>  <SCORE.RESTR.norm>
0

>  <SCORE.SYSTEM>
-19.2007

>  <SCORE.SYSTEM.CONST>
0

>  <SCORE.SYSTEM.DIHEDRAL>
5.13735

>  <SCORE.SYSTEM.POLAR>
-3.08598

>  <SCORE.SYSTEM.SOLV>
0.123361

>  <SCORE.SYSTEM.VDW>
-4.26744

>  <SCORE.SYSTEM.norm>
-2.13341

>  <SCORE.heavy>
9

>  <SCORE.norm>
-5.29399

$$$$
P79172745
 OpenBabel12072022113D
libRbt.so/2013.1/901 2013/11/27
 13 12  0  0  0  0  0  0  0  0999 V2000
  -31.0466   16.9182  -15.3791 C   0  0  0  0  0  0  0  0  0  0  0  0
  -29.6943   16.6642  -16.0580 C   0  0  0  0  0  0  0  0  0  0  0  0
  -28.5637   17.3957  -15.3242 C   0  0  0  0  0  0  0  0  0  0  0  0
  -29.4128   15.1497  -16.0167 C   0  0  0  0  0  0  0  0  0  0  0  0
  -29.7312   17.0560  -17.4695 N   0  0  0  0  0  0  0  0  0  0  0  0
  -30.1576   18.2588  -17.9431 C   0  0  0  0  0  0  0  0  0  0  0  0
  -30.3854   19.3305  -17.2552 N   0  0  0  0  0  0  0  0  0  0  0  0
  -30.8380   20.3709  -18.0847 O   0  0  0  0  0  0  0  0  0  0  0  0
  -30.3309   18.1724  -19.2892 N   0  0  0  0  0  0  0  0  0  0  0  0
  -28.9217   16.7367  -17.9905 H   0  0  0  0  0  0  0  0  0  0  0  0
  -31.7391   20.5176  -17.7425 H   0  0  0  0  0  0  0  0  0  0  0  0
  -29.5130   17.7843  -19.7417 H   0  0  0  0  0  0  0  0  0  0  0  0
  -31.1370   17.5736  -19.4559 H   0  0  0  0  0  0  0  0  0  0  0  0
  1  2  1  0  0  0  0
  2  3  1  0  0  0  0
  2  4  1  0  0  0  0
  2  5  1  0  0  0  0
  5  6  1  0  0  0  0
  5 10  1  0  0  0  0
  6  7  2  0  0  0  0
  6  9  1  0  0  0  0
  7  8  1  0  0  0  0
  8 11  1  0  0  0  0
  9 12  1  0  0  0  0
  9 13  1  0  0  0  0
M  END
>  <CHROM.0>
-56.98036317,-63.08453406,-64.75368465,-40.31800184,-55.23758988,-61.98626812
-67.71250943,-55.84228196,-168.87663566

>  <CHROM.1>
51.17140709,12.59398198,-50.82031231,116.06537739,-30.03455655,17.73502346
-17.01691625,0.46470383,-1.29082163,1.38188837

>  <Name>
P79172745

>  <RI>
0

>  <Rbt.Current_Directory>
/home/fstefaniak/projects/zuza/docking/adenine/4TZX

>  <Rbt.Executable>
rbdock ($Id: //depot/dev/client3/rdock/2013.1/src/exe/rbdock.cxx#4 $)

>  <Rbt.Library>
libRbt.so (2013.1, Build901 2013/11/27)

>  <Rbt.Parameter_File>
/home/fstefaniak/progs/rDock//data/scripts/dock_solv.prm

>  <Rbt.Receptor>
4tzx.prm

>  <SCORE>
-47.4672

>  <SCORE.INTER>
-26.1624

>  <SCORE.INTER.CONST>
1

>  <SCORE.INTER.POLAR>
-3.23608

>  <SCORE.INTER.ROT>
3

>  <SCORE.INTER.SOLV>
12.948

>  <SCORE.INTER.VDW>
-16.5706

>  <SCORE.INTER.norm>
-2.90693

>  <SCORE.INTRA>
-0.310311

>  <SCORE.INTRA.DIHEDRAL>
-1.72473

>  <SCORE.INTRA.DIHEDRAL.0>
3.24032

>  <SCORE.INTRA.POLAR>
0.209008

>  <SCORE.INTRA.POLAR.0>
-0.209008

>  <SCORE.INTRA.REPUL>
0

>  <SCORE.INTRA.REPUL.0>
0

>  <SCORE.INTRA.SOLV>
0.00231566

>  <SCORE.INTRA.SOLV.lig_0>
-9.84243

>  <SCORE.INTRA.VDW>
-0.159733

>  <SCORE.INTRA.VDW.0>
0.318508

>  <SCORE.INTRA.norm>
-0.034479

>  <SCORE.RESTR>
0

>  <SCORE.RESTR.CAVITY>
0

>  <SCORE.RESTR.norm>
0

>  <SCORE.SYSTEM>
-20.9945

>  <SCORE.SYSTEM.CONST>
0

>  <SCORE.SYSTEM.DIHEDRAL>
5.02573

>  <SCORE.SYSTEM.POLAR>
-3.12554

>  <SCORE.SYSTEM.SOLV>
0.202774

>  <SCORE.SYSTEM.VDW>
-5.32071

>  <SCORE.SYSTEM.norm>
-2.33273

>  <SCORE.heavy>
9

>  <SCORE.norm>
-5.27414

$$$$
P79173498
 OpenBabel12072022113D
libRbt.so/2013.1/901 2013/11/27
 15 15  0  0  0  0  0  0  0  0999 V2000
  -28.4219   13.9532  -16.7607 C   0  0  0  0  0  0  0  0  0  0  0  0
  -29.4661   14.8147  -16.0631 C   0  0  0  0  0  0  0  0  0  0  0  0
  -28.9328   16.2119  -15.6932 C   0  0  1  0  0  0  0  0  0  0  0  0
  -29.0108   17.1838  -16.8942 C   0  0  0  0  0  0  0  0  0  0  0  0
  -30.3678   17.4984  -17.2495 O   0  0  0  0  0  0  0  0  0  0  0  0
  -31.0351   18.1233  -16.1390 C   0  0  0  0  0  0  0  0  0  0  0  0
  -31.0597   17.1950  -14.9197 C   0  0  0  0  0  0  0  0  0  0  0  0
  -29.6836   16.7932  -14.5421 N   0  0  0  0  0  0  0  0  0  0  0  0
  -29.0118   17.5881  -13.6376 C   0  0  0  0  0  0  0  0  0  0  0  0
  -27.7791   17.9794  -13.7803 N   0  0  0  0  0  0  0  0  0  0  0  0
  -27.3886   18.8097  -12.7155 O   0  0  0  0  0  0  0  0  0  0  0  0
  -29.7872   17.9699  -12.5863 N   0  0  0  0  0  0  0  0  0  0  0  0
  -27.3187   18.1726  -11.9811 H   0  0  0  0  0  0  0  0  0  0  0  0
  -29.8556   18.9777  -12.5299 H   0  0  0  0  0  0  0  0  0  0  0  0
  -29.3817   17.5826  -11.7382 H   0  0  0  0  0  0  0  0  0  0  0  0
  1  2  1  0  0  0  0
  3  2  1  6  0  0  0
  3  4  1  0  0  0  0
  3  8  1  0  0  0  0
  4  5  1  0  0  0  0
  5  6  1  0  0  0  0
  6  7  1  0  0  0  0
  7  8  1  0  0  0  0
  8  9  1  0  0  0  0
  9 10  2  0  0  0  0
  9 12  1  0  0  0  0
 10 11  1  0  0  0  0
 11 13  1  0  0  0  0
 12 14  1  0  0  0  0
 12 15  1  0  0  0  0
M  END
>  <CHROM.0>
-57.50237687,-62.53453033,-63.39145857,-41.89493889,-57.07421675,60.01010060
-67.78073200,-57.35272174,-169.51063546

>  <CHROM.1>
82.85918126,6.81557452,-120.58664826,71.86645830,-29.31092353,17.03760191
-15.05068812,-1.85583512,-0.65975434,0.78950044

>  <Name>
P79173498

>  <RI>
0

>  <Rbt.Current_Directory>
/home/fstefaniak/projects/zuza/docking/adenine/4TZX

>  <Rbt.Executable>
rbdock ($Id: //depot/dev/client3/rdock/2013.1/src/exe/rbdock.cxx#4 $)

>  <Rbt.Library>
libRbt.so (2013.1, Build901 2013/11/27)

>  <Rbt.Parameter_File>
/home/fstefaniak/progs/rDock//data/scripts/dock_solv.prm

>  <Rbt.Receptor>
4tzx.prm

>  <SCORE>
-49.6614

>  <SCORE.INTER>
-30.9255

>  <SCORE.INTER.CONST>
1

>  <SCORE.INTER.POLAR>
-4.52067

>  <SCORE.INTER.ROT>
3

>  <SCORE.INTER.SOLV>
13.4874

>  <SCORE.INTER.VDW>
-15.6439

>  <SCORE.INTER.norm>
-2.57712

>  <SCORE.INTRA>
1.23555

>  <SCORE.INTRA.DIHEDRAL>
0.0180308

>  <SCORE.INTRA.DIHEDRAL.0>
2.98375

>  <SCORE.INTRA.POLAR>
0.199939

>  <SCORE.INTRA.POLAR.0>
-0.199939

>  <SCORE.INTRA.REPUL>
0

>  <SCORE.INTRA.REPUL.0>
0

>  <SCORE.INTRA.SOLV>
-0.29778

>  <SCORE.INTRA.SOLV.lig_0>
-11.7734

>  <SCORE.INTRA.VDW>
0.695635

>  <SCORE.INTRA.VDW.0>
-0.726431

>  <SCORE.INTRA.norm>
0.102963

>  <SCORE.RESTR>
0

>  <SCORE.RESTR.CAVITY>
0

>  <SCORE.RESTR.norm>
0

>  <SCORE.SYSTEM>
-19.9715

>  <SCORE.SYSTEM.CONST>
0

>  <SCORE.SYSTEM.DIHEDRAL>
4.52371

>  <SCORE.SYSTEM.POLAR>
-3.08018

>  <SCORE.SYSTEM.SOLV>
0.0645878

>  <SCORE.SYSTEM.VDW>
-4.57648

>  <SCORE.SYSTEM.norm>
-1.66429

>  <SCORE.heavy>
12

>  <SCORE.norm>
-4.13845

$$$$
P79173498
 OpenBabel12072022113D
libRbt.so/2013.1/901 2013/11/27
 15 15  0  0  0  0  0  0  0  0999 V2000
  -28.5746   14.0621  -16.5074 C   0  0  0  0  0  0  0  0  0  0  0  0
  -29.6026   14.9729  -15.8494 C   0  0  0  0  0  0  0  0  0  0  0  0
  -29.0306   16.3603  -15.5009 C   0  0  1  0  0  0  0  0  0  0  0  0
  -29.1372   17.3337  -16.6985 C   0  0  0  0  0  0  0  0  0  0  0  0
  -30.5009   17.6725  -17.0017 O   0  0  0  0  0  0  0  0  0  0  0  0
  -31.1139   18.3091  -15.8668 C   0  0  0  0  0  0  0  0  0  0  0  0
  -31.1084   17.3812  -14.6469 C   0  0  0  0  0  0  0  0  0  0  0  0
  -29.7262   16.9547  -14.3222 N   0  0  0  0  0  0  0  0  0  0  0  0
  -29.0061   17.7372  -13.4445 C   0  0  0  0  0  0  0  0  0  0  0  0
  -27.7410   18.0111  -13.5758 N   0  0  0  0  0  0  0  0  0  0  0  0
  -27.3013   18.8624  -12.5474 O   0  0  0  0  0  0  0  0  0  0  0  0
  -29.7669   18.2433  -12.4358 N   0  0  0  0  0  0  0  0  0  0  0  0
  -27.2268   18.2457  -11.7961 H   0  0  0  0  0  0  0  0  0  0  0  0
  -30.5415   17.6296  -12.2192 H   0  0  0  0  0  0  0  0  0  0  0  0
  -30.0965   19.1623  -12.7199 H   0  0  0  0  0  0  0  0  0  0  0  0
  1  2  1  0  0  0  0
  3  2  1  6  0  0  0
  3  4  1  0  0  0  0
  3  8  1  0  0  0  0
  4  5  1  0  0  0  0
  5  6  1  0  0  0  0
  6  7  1  0  0  0  0
  7  8  1  0  0  0  0
  8  9  1  0  0  0  0
  9 10  2  0  0  0  0
  9 12  1  0  0  0  0
 10 11  1  0  0  0  0
 11 13  1  0  0  0  0
 12 14  1  0  0  0  0
 12 15  1  0  0  0  0
M  END
>  <CHROM.0>
-59.81246425,60.84409805,-63.99472305,-43.11804319,-55.47120790,-60.90766354
-65.55884661,-57.01691674,-169.15667487

>  <CHROM.1>
86.47838927,0.60476894,29.24469315,76.72914927,-29.37331074,17.18407371,-14.84148594
-1.90375735,-0.63403704,0.76000284

>  <Name>
P79173498

>  <RI>
0

>  <Rbt.Current_Directory>
/home/fstefaniak/projects/zuza/docking/adenine/4TZX

>  <Rbt.Executable>
rbdock ($Id: //depot/dev/client3/rdock/2013.1/src/exe/rbdock.cxx#4 $)

>  <Rbt.Library>
libRbt.so (2013.1, Build901 2013/11/27)

>  <Rbt.Parameter_File>
/home/fstefaniak/progs/rDock//data/scripts/dock_solv.prm

>  <Rbt.Receptor>
4tzx.prm

>  <SCORE>
-48.5155

>  <SCORE.INTER>
-30.2094

>  <SCORE.INTER.CONST>
1

>  <SCORE.INTER.POLAR>
-4.57414

>  <SCORE.INTER.ROT>
3

>  <SCORE.INTER.SOLV>
13.4809

>  <SCORE.INTER.VDW>
-14.9861

>  <SCORE.INTER.norm>
-2.51745

>  <SCORE.INTRA>
1.97339

>  <SCORE.INTRA.DIHEDRAL>
0.485124

>  <SCORE.INTRA.DIHEDRAL.0>
2.98375

>  <SCORE.INTRA.POLAR>
0.199939

>  <SCORE.INTRA.POLAR.0>
-0.199939

>  <SCORE.INTRA.REPUL>
0

>  <SCORE.INTRA.REPUL.0>
0

>  <SCORE.INTRA.SOLV>
-0.262313

>  <SCORE.INTRA.SOLV.lig_0>
-11.7734

>  <SCORE.INTRA.VDW>
1.18219

>  <SCORE.INTRA.VDW.0>
-0.726431

>  <SCORE.INTRA.norm>
0.164449

>  <SCORE.RESTR>
0

>  <SCORE.RESTR.CAVITY>
0

>  <SCORE.RESTR.norm>
0

>  <SCORE.SYSTEM>
-20.2795

>  <SCORE.SYSTEM.CONST>
0

>  <SCORE.SYSTEM.DIHEDRAL>
4.27618

>  <SCORE.SYSTEM.POLAR>
-3.06152

>  <SCORE.SYSTEM.SOLV>
0.260253

>  <SCORE.SYSTEM.VDW>
-4.82673

>  <SCORE.SYSTEM.norm>
-1.68996

>  <SCORE.heavy>
12

>  <SCORE.norm>
-4.04296

$$$$
P79173498
 OpenBabel12072022113D
libRbt.so/2013.1/901 2013/11/27
 15 15  0  0  0  0  0  0  0  0999 V2000
  -28.5719   14.0710  -16.5168 C   0  0  0  0  0  0  0  0  0  0  0  0
  -29.6133   14.9740  -15.8691 C   0  0  0  0  0  0  0  0  0  0  0  0
  -29.0531   16.3630  -15.5079 C   0  0  1  0  0  0  0  0  0  0  0  0
  -29.1509   17.3409  -16.7027 C   0  0  0  0  0  0  0  0  0  0  0  0
  -30.5128   17.6735  -17.0206 O   0  0  0  0  0  0  0  0  0  0  0  0
  -31.1427   18.3018  -15.8903 C   0  0  0  0  0  0  0  0  0  0  0  0
  -31.1465   17.3688  -14.6744 C   0  0  0  0  0  0  0  0  0  0  0  0
  -29.7659   16.9485  -14.3351 N   0  0  0  0  0  0  0  0  0  0  0  0
  -29.0607   17.7313  -13.4457 C   0  0  0  0  0  0  0  0  0  0  0  0
  -27.7891   17.9885  -13.5446 N   0  0  0  0  0  0  0  0  0  0  0  0
  -27.3674   18.8448  -12.5129 O   0  0  0  0  0  0  0  0  0  0  0  0
  -29.8426   18.2568  -12.4635 N   0  0  0  0  0  0  0  0  0  0  0  0
  -27.2600   18.2236  -11.7694 H   0  0  0  0  0  0  0  0  0  0  0  0
  -30.5886   17.6217  -12.2113 H   0  0  0  0  0  0  0  0  0  0  0  0
  -30.2135   19.1433  -12.7960 H   0  0  0  0  0  0  0  0  0  0  0  0
  1  2  1  0  0  0  0
  3  2  1  6  0  0  0
  3  4  1  0  0  0  0
  3  8  1  0  0  0  0
  4  5  1  0  0  0  0
  5  6  1  0  0  0  0
  6  7  1  0  0  0  0
  7  8  1  0  0  0  0
  8  9  1  0  0  0  0
  9 10  2  0  0  0  0
  9 12  1  0  0  0  0
 10 11  1  0  0  0  0
 11 13  1  0  0  0  0
 12 14  1  0  0  0  0
 12 15  1  0  0  0  0
M  END
>  <CHROM.0>
-59.41977307,58.64886904,-68.34122332,-42.51149541,-55.29866112,-172.85759812
-64.23312013,-55.65980181,-168.00123911

>  <CHROM.1>
86.56128215,-0.98396432,33.72854191,80.58204460,-29.40753335,17.18065464
-14.84853384,-1.89031033,-0.63801699,0.77420209

>  <Name>
P79173498

>  <RI>
0

>  <Rbt.Current_Directory>
/home/fstefaniak/projects/zuza/docking/adenine/4TZX

>  <Rbt.Executable>
rbdock ($Id: //depot/dev/client3/rdock/2013.1/src/exe/rbdock.cxx#4 $)

>  <Rbt.Library>
libRbt.so (2013.1, Build901 2013/11/27)

>  <Rbt.Parameter_File>
/home/fstefaniak/progs/rDock//data/scripts/dock_solv.prm

>  <Rbt.Receptor>
4tzx.prm

>  <SCORE>
-48.5088

>  <SCORE.INTER>
-30.4554

>  <SCORE.INTER.CONST>
1

>  <SCORE.INTER.POLAR>
-4.5384

>  <SCORE.INTER.ROT>
3

>  <SCORE.INTER.SOLV>
13.4727

>  <SCORE.INTER.VDW>
-15.2665

>  <SCORE.INTER.norm>
-2.53795

>  <SCORE.INTRA>
1.91897

>  <SCORE.INTRA.DIHEDRAL>
0.444393

>  <SCORE.INTRA.DIHEDRAL.0>
2.98375

>  <SCORE.INTRA.POLAR>
0.199939

>  <SCORE.INTRA.POLAR.0>
-0.199939

>  <SCORE.INTRA.REPUL>
0

>  <SCORE.INTRA.REPUL.0>
0

>  <SCORE.INTRA.SOLV>
-0.260182

>  <SCORE.INTRA.SOLV.lig_0>
-11.7734

>  <SCORE.INTRA.VDW>
1.14707

>  <SCORE.INTRA.VDW.0>
-0.726431

>  <SCORE.INTRA.norm>
0.159914

>  <SCORE.RESTR>
0

>  <SCORE.RESTR.CAVITY>
0

>  <SCORE.RESTR.norm>
0

>  <SCORE.SYSTEM>
-19.9723

>  <SCORE.SYSTEM.CONST>
0

>  <SCORE.SYSTEM.DIHEDRAL>
4.94248

>  <SCORE.SYSTEM.POLAR>
-3.0718

>  <SCORE.SYSTEM.SOLV>
0.151073

>  <SCORE.SYSTEM.VDW>
-4.77337

>  <SCORE.SYSTEM.norm>
-1.66436

>  <SCORE.heavy>
12

>  <SCORE.norm>
-4.0424

$$$$
P79173919
 OpenBabel12072022113D
libRbt.so/2013.1/901 2013/11/27
 16 17  0  0  0  0  0  0  0  0999 V2000
  -30.8975   18.4314  -18.8144 C   0  0  0  0  0  0  0  0  0  0  0  0
  -29.7808   17.5873  -18.1694 C   0  0  0  0  0  0  0  0  0  0  0  0
  -29.8456   17.9644  -16.7016 C   0  0  1  0  0  0  0  0  0  0  0  0
  -31.3320   18.2241  -16.4570 C   0  0  2  0  0  0  0  0  0  0  0  0
  -31.6962   19.0667  -17.6668 C   0  0  0  0  0  0  0  0  0  0  0  0
  -31.5214   18.8901  -15.2067 O   0  0  0  0  0  0  0  0  0  0  0  0
  -31.0018   18.0650  -14.1369 C   0  0  0  0  0  0  0  0  0  0  0  0
  -29.5157   17.6748  -14.3337 C   0  0  0  0  0  0  0  0  0  0  0  0
  -29.3262   17.0669  -15.6699 N   0  0  0  0  0  0  0  0  0  0  0  0
  -29.1351   15.7146  -15.7644 C   0  0  0  0  0  0  0  0  0  0  0  0
  -28.0575   15.0784  -16.1231 N   0  0  0  0  0  0  0  0  0  0  0  0
  -27.0447   15.9601  -16.5246 O   0  0  0  0  0  0  0  0  0  0  0  0
  -30.1903   14.9628  -15.3599 N   0  0  0  0  0  0  0  0  0  0  0  0
  -27.1949   16.0172  -17.4845 H   0  0  0  0  0  0  0  0  0  0  0  0
  -29.9432   13.9977  -15.1983 H   0  0  0  0  0  0  0  0  0  0  0  0
  -30.9364   15.0306  -16.0444 H   0  0  0  0  0  0  0  0  0  0  0  0
  1  2  1  0  0  0  0
  1  5  1  0  0  0  0
  3  2  1  6  0  0  0
  3  4  1  0  0  0  0
  3  9  1  0  0  0  0
  4  5  1  6  0  0  0
  4  6  1  0  0  0  0
  6  7  1  0  0  0  0
  7  8  1  0  0  0  0
  8  9  1  0  0  0  0
  9 10  1  0  0  0  0
 10 11  2  0  0  0  0
 10 13  1  0  0  0  0
 11 12  1  0  0  0  0
 12 14  1  0  0  0  0
 13 15  1  0  0  0  0
 13 16  1  0  0  0  0
M  END
>  <CHROM.0>
-61.32166621,-62.20159919,-65.25074056,-44.25600466,-61.89612888,-66.37677926
-67.49413234,59.02767310,-168.59535446

>  <CHROM.1>
92.26552983,-164.18081733,-92.42766733,-29.92790754,17.25833799,-16.21920853
-2.76707969,-0.75883087,1.80048723

>  <Name>
P79173919

>  <RI>
0

>  <Rbt.Current_Directory>
/home/fstefaniak/projects/zuza/docking/adenine/4TZX

>  <Rbt.Executable>
rbdock ($Id: //depot/dev/client3/rdock/2013.1/src/exe/rbdock.cxx#4 $)

>  <Rbt.Library>
libRbt.so (2013.1, Build901 2013/11/27)

>  <Rbt.Parameter_File>
/home/fstefaniak/progs/rDock//data/scripts/dock_solv.prm

>  <Rbt.Receptor>
4tzx.prm

>  <SCORE>
-56.9065

>  <SCORE.INTER>
-35.1861

>  <SCORE.INTER.CONST>
1

>  <SCORE.INTER.POLAR>
-4.02129

>  <SCORE.INTER.ROT>
2

>  <SCORE.INTER.SOLV>
14.2124

>  <SCORE.INTER.VDW>
-19.7239

>  <SCORE.INTER.norm>
-2.70662

>  <SCORE.INTRA>
-1.48777

>  <SCORE.INTRA.DIHEDRAL>
-2.00716

>  <SCORE.INTRA.DIHEDRAL.0>
2.92857

>  <SCORE.INTRA.POLAR>
0

>  <SCORE.INTRA.POLAR.0>
0

>  <SCORE.INTRA.REPUL>
0

>  <SCORE.INTRA.REPUL.0>
0

>  <SCORE.INTRA.SOLV>
-0.118671

>  <SCORE.INTRA.SOLV.lig_0>
-11.7025

>  <SCORE.INTRA.VDW>
-0.424854

>  <SCORE.INTRA.VDW.0>
-1.16616

>  <SCORE.INTRA.norm>
-0.114444

>  <SCORE.RESTR>
0

>  <SCORE.RESTR.CAVITY>
0

>  <SCORE.RESTR.norm>
0

>  <SCORE.SYSTEM>
-20.2327

>  <SCORE.SYSTEM.CONST>
0

>  <SCORE.SYSTEM.DIHEDRAL>
4.43324

>  <SCORE.SYSTEM.POLAR>
-3.01476

>  <SCORE.SYSTEM.SOLV>
-0.00686416

>  <SCORE.SYSTEM.VDW>
-4.91469

>  <SCORE.SYSTEM.norm>
-1.55636

>  <SCORE.heavy>
13

>  <SCORE.norm>
-4.37743

$$$$
P79173919
 OpenBabel12072022113D
libRbt.so/2013.1/901 2013/11/27
 16 17  0  0  0  0  0  0  0  0999 V2000
  -30.7906   18.5146  -18.8019 C   0  0  0  0  0  0  0  0  0  0  0  0
  -29.6942   17.6577  -18.1389 C   0  0  0  0  0  0  0  0  0  0  0  0
  -29.8114   17.9988  -16.6656 C   0  0  1  0  0  0  0  0  0  0  0  0
  -31.3062   18.2488  -16.4668 C   0  0  2  0  0  0  0  0  0  0  0  0
  -31.6309   19.1198  -17.6677 C   0  0  0  0  0  0  0  0  0  0  0  0
  -31.5413   18.8836  -15.2080 O   0  0  0  0  0  0  0  0  0  0  0  0
  -31.0565   18.0340  -14.1411 C   0  0  0  0  0  0  0  0  0  0  0  0
  -29.5631   17.6524  -14.2953 C   0  0  0  0  0  0  0  0  0  0  0  0
  -29.3252   17.0777  -15.6385 N   0  0  0  0  0  0  0  0  0  0  0  0
  -29.1264   15.7286  -15.7591 C   0  0  0  0  0  0  0  0  0  0  0  0
  -28.0501   15.1062  -16.1446 N   0  0  0  0  0  0  0  0  0  0  0  0
  -27.0494   16.0016  -16.5459 O   0  0  0  0  0  0  0  0  0  0  0  0
  -30.1704   14.9626  -15.3519 N   0  0  0  0  0  0  0  0  0  0  0  0
  -27.2134   16.0730  -17.5026 H   0  0  0  0  0  0  0  0  0  0  0  0
  -29.9119   13.9989  -15.2001 H   0  0  0  0  0  0  0  0  0  0  0  0
  -30.9229   15.0281  -16.0297 H   0  0  0  0  0  0  0  0  0  0  0  0
  1  2  1  0  0  0  0
  1  5  1  0  0  0  0
  3  2  1  6  0  0  0
  3  4  1  0  0  0  0
  3  9  1  0  0  0  0
  4  5  1  6  0  0  0
  4  6  1  0  0  0  0
  6  7  1  0  0  0  0
  7  8  1  0  0  0  0
  8  9  1  0  0  0  0
  9 10  1  0  0  0  0
 10 11  2  0  0  0  0
 10 13  1  0  0  0  0
 11 12  1  0  0  0  0
 12 14  1  0  0  0  0
 13 15  1  0  0  0  0
 13 16  1  0  0  0  0
M  END
>  <CHROM.0>
-61.08894152,-59.14061801,-63.85630309,-42.90451631,-174.62342581,-176.41617457
-67.61161461,60.95262350,-168.82696441

>  <CHROM.1>
89.37525686,-163.50231350,-92.51139261,-29.91109062,17.28121076,-16.21186304
-2.72452283,-0.75158300,1.86670328

>  <Name>
P79173919

>  <RI>
0

>  <Rbt.Current_Directory>
/home/fstefaniak/projects/zuza/docking/adenine/4TZX

>  <Rbt.Executable>
rbdock ($Id: //depot/dev/client3/rdock/2013.1/src/exe/rbdock.cxx#4 $)

>  <Rbt.Library>
libRbt.so (2013.1, Build901 2013/11/27)

>  <Rbt.Parameter_File>
/home/fstefaniak/progs/rDock//data/scripts/dock_solv.prm

>  <Rbt.Receptor>
4tzx.prm

>  <SCORE>
-56.7428

>  <SCORE.INTER>
-35.14

>  <SCORE.INTER.CONST>
1

>  <SCORE.INTER.POLAR>
-4.00153

>  <SCORE.INTER.ROT>
2

>  <SCORE.INTER.SOLV>
14.2664

>  <SCORE.INTER.VDW>
-19.777

>  <SCORE.INTER.norm>
-2.70308

>  <SCORE.INTRA>
-1.4534

>  <SCORE.INTRA.DIHEDRAL>
-2.01145

>  <SCORE.INTRA.DIHEDRAL.0>
2.92857

>  <SCORE.INTRA.POLAR>
0

>  <SCORE.INTRA.POLAR.0>
0

>  <SCORE.INTRA.REPUL>
0

>  <SCORE.INTRA.REPUL.0>
0

>  <SCORE.INTRA.SOLV>
-0.121667

>  <SCORE.INTRA.SOLV.lig_0>
-11.7025

>  <SCORE.INTRA.VDW>
-0.386842

>  <SCORE.INTRA.VDW.0>
-1.16616

>  <SCORE.INTRA.norm>
-0.1118

>  <SCORE.RESTR>
0

>  <SCORE.RESTR.CAVITY>
0

>  <SCORE.RESTR.norm>
0

>  <SCORE.SYSTEM>
-20.1494

>  <SCORE.SYSTEM.CONST>
0

>  <SCORE.SYSTEM.DIHEDRAL>
4.51522

>  <SCORE.SYSTEM.POLAR>
-3.04926

>  <SCORE.SYSTEM.SOLV>
-0.287915

>  <SCORE.SYSTEM.VDW>
-4.67787

>  <SCORE.SYSTEM.norm>
-1.54996

>  <SCORE.heavy>
13

>  <SCORE.norm>
-4.36483

$$$$
P79173919
 OpenBabel12072022113D
libRbt.so/2013.1/901 2013/11/27
 16 17  0  0  0  0  0  0  0  0999 V2000
  -30.8531   18.4498  -18.8263 C   0  0  0  0  0  0  0  0  0  0  0  0
  -29.7436   17.5972  -18.1800 C   0  0  0  0  0  0  0  0  0  0  0  0
  -29.8149   17.9659  -16.7105 C   0  0  1  0  0  0  0  0  0  0  0  0
  -31.3016   18.2307  -16.4725 C   0  0  2  0  0  0  0  0  0  0  0  0
  -31.6554   19.0819  -17.6794 C   0  0  0  0  0  0  0  0  0  0  0  0
  -31.4950   18.8902  -15.2194 O   0  0  0  0  0  0  0  0  0  0  0  0
  -30.9849   18.0566  -14.1516 C   0  0  0  0  0  0  0  0  0  0  0  0
  -29.4994   17.6612  -14.3425 C   0  0  0  0  0  0  0  0  0  0  0  0
  -29.3051   17.0602  -15.6812 N   0  0  0  0  0  0  0  0  0  0  0  0
  -29.1193   15.7077  -15.7826 C   0  0  0  0  0  0  0  0  0  0  0  0
  -28.0484   15.0695  -16.1572 N   0  0  0  0  0  0  0  0  0  0  0  0
  -27.0382   15.9495  -16.5689 O   0  0  0  0  0  0  0  0  0  0  0  0
  -30.1714   14.9577  -15.3669 N   0  0  0  0  0  0  0  0  0  0  0  0
  -26.4464   15.9539  -15.7962 H   0  0  0  0  0  0  0  0  0  0  0  0
  -29.9267   13.9899  -15.2181 H   0  0  0  0  0  0  0  0  0  0  0  0
  -30.9287   15.0355  -16.0379 H   0  0  0  0  0  0  0  0  0  0  0  0
  1  2  1  0  0  0  0
  1  5  1  0  0  0  0
  3  2  1  6  0  0  0
  3  4  1  0  0  0  0
  3  9  1  0  0  0  0
  4  5  1  6  0  0  0
  4  6  1  0  0  0  0
  6  7  1  0  0  0  0
  7  8  1  0  0  0  0
  8  9  1  0  0  0  0
  9 10  1  0  0  0  0
 10 11  2  0  0  0  0
 10 13  1  0  0  0  0
 11 12  1  0  0  0  0
 12 14  1  0  0  0  0
 13 15  1  0  0  0  0
 13 16  1  0  0  0  0
M  END
>  <CHROM.0>
-56.72272672,72.79285463,-64.14833502,-44.16984769,-175.24830530,-57.92054296
-62.59643691,-57.28896653,-167.93703256

>  <CHROM.1>
91.19535296,-164.60187244,102.23959719,-29.90003233,17.25725415,-16.22629706
-2.75372761,-0.75859312,1.80970993

>  <Name>
P79173919

>  <RI>
0

>  <Rbt.Current_Directory>
/home/fstefaniak/projects/zuza/docking/adenine/4TZX

>  <Rbt.Executable>
rbdock ($Id: //depot/dev/client3/rdock/2013.1/src/exe/rbdock.cxx#4 $)

>  <Rbt.Library>
libRbt.so (2013.1, Build901 2013/11/27)

>  <Rbt.Parameter_File>
/home/fstefaniak/progs/rDock//data/scripts/dock_solv.prm

>  <Rbt.Receptor>
4tzx.prm

>  <SCORE>
-56.3433

>  <SCORE.INTER>
-35.3058

>  <SCORE.INTER.CONST>
1

>  <SCORE.INTER.POLAR>
-3.98743

>  <SCORE.INTER.ROT>
2

>  <SCORE.INTER.SOLV>
14.1917

>  <SCORE.INTER.VDW>
-19.9097

>  <SCORE.INTER.norm>
-2.71583

>  <SCORE.INTRA>
-1.36722

>  <SCORE.INTRA.DIHEDRAL>
-1.92139

>  <SCORE.INTRA.DIHEDRAL.0>
2.92857

>  <SCORE.INTRA.POLAR>
0

>  <SCORE.INTRA.POLAR.0>
0

>  <SCORE.INTRA.REPUL>
0

>  <SCORE.INTRA.REPUL.0>
0

>  <SCORE.INTRA.SOLV>
-0.0822688

>  <SCORE.INTRA.SOLV.lig_0>
-11.7025

>  <SCORE.INTRA.VDW>
-0.365397

>  <SCORE.INTRA.VDW.0>
-1.16616

>  <SCORE.INTRA.norm>
-0.105171

>  <SCORE.RESTR>
0

>  <SCORE.RESTR.CAVITY>
0

>  <SCORE.RESTR.norm>
0

>  <SCORE.SYSTEM>
-19.6703

>  <SCORE.SYSTEM.CONST>
0

>  <SCORE.SYSTEM.DIHEDRAL>
4.97094

>  <SCORE.SYSTEM.POLAR>
-3.0574

>  <SCORE.SYSTEM.SOLV>
0.033804

>  <SCORE.SYSTEM.VDW>
-4.59048

>  <SCORE.SYSTEM.norm>
-1.5131

>  <SCORE.heavy>
13

>  <SCORE.norm>
-4.3341

$$$$
P79187767
 OpenBabel12072022113D
libRbt.so/2013.1/901 2013/11/27
 12 13  0  0  0  0  0  0  0  0999 V2000
  -30.5237   17.7068  -15.0804 C   0  0  0  0  0  0  0  0  0  0  0  0
  -30.8965   16.2760  -15.4336 C   0  0  0  0  0  0  0  0  0  0  0  0
  -29.8826   15.8312  -16.4000 N   0  0  1  0  0  0  0  0  0  0  0  0
  -29.6271   17.0189  -17.2342 C   0  0  0  0  0  0  0  0  0  0  0  0
  -29.8404   18.2457  -16.3339 C   0  0  1  0  0  0  0  0  0  0  0  0
  -30.7048   19.2552  -17.0050 N   0  0  0  0  0  0  0  0  0  0  0  0
  -31.7849   18.9313  -17.7248 C   0  0  0  0  0  0  0  0  0  0  0  0
  -32.7102   18.6512  -18.3588 N   0  0  0  0  0  0  0  0  0  0  0  0
  -28.6589   15.3284  -15.7472 C   0  0  0  0  0  0  0  0  0  0  0  0
  -28.0323   14.0596  -16.2583 C   0  0  0  0  0  0  0  0  0  0  0  0
  -27.3635   15.3782  -16.5111 C   0  0  0  0  0  0  0  0  0  0  0  0
  -30.2246   20.1396  -17.2035 H   0  0  0  0  0  0  0  0  0  0  0  0
  1  2  1  0  0  0  0
  1  5  1  0  0  0  0
  2  3  1  0  0  0  0
  3  4  1  0  0  0  0
  3  9  1  1  0  0  0
  4  5  1  0  0  0  0
  5  6  1  6  0  0  0
  6  7  1  0  0  0  0
  6 12  1  0  0  0  0
  7  8  3  0  0  0  0
  9 10  1  0  0  0  0
  9 11  1  0  0  0  0
 10 11  1  0  0  0  0
M  END
>  <CHROM.0>
-62.11226489,-59.24791414,-68.32702977,-43.51597672,-171.95176146,-64.31670217
-69.81740072,-58.52038917,-169.62563065

>  <CHROM.1>
135.87737207,-75.49042476,-29.98959192,16.96821280,-16.54868160,2.63938795
0.74942109,-1.21788276

>  <Name>
P79187767

>  <RI>
0

>  <Rbt.Current_Directory>
/home/fstefaniak/projects/zuza/docking/adenine/4TZX

>  <Rbt.Executable>
rbdock ($Id: //depot/dev/client3/rdock/2013.1/src/exe/rbdock.cxx#4 $)

>  <Rbt.Library>
libRbt.so (2013.1, Build901 2013/11/27)

>  <Rbt.Parameter_File>
/home/fstefaniak/progs/rDock//data/scripts/dock_solv.prm

>  <Rbt.Receptor>
4tzx.prm

>  <SCORE>
-39.1323

>  <SCORE.INTER>
-20.1018

>  <SCORE.INTER.CONST>
1

>  <SCORE.INTER.POLAR>
-1.56827

>  <SCORE.INTER.ROT>
2

>  <SCORE.INTER.SOLV>
12.1237

>  <SCORE.INTER.VDW>
-17.1482

>  <SCORE.INTER.norm>
-1.82744

>  <SCORE.INTRA>
2.16975

>  <SCORE.INTRA.DIHEDRAL>
0.303307

>  <SCORE.INTRA.DIHEDRAL.0>
2.00371

>  <SCORE.INTRA.POLAR>
0

>  <SCORE.INTRA.POLAR.0>
0

>  <SCORE.INTRA.REPUL>
0

>  <SCORE.INTRA.REPUL.0>
0

>  <SCORE.INTRA.SOLV>
0.307609

>  <SCORE.INTRA.SOLV.lig_0>
-11.968

>  <SCORE.INTRA.VDW>
1.86429

>  <SCORE.INTRA.VDW.0>
-0.667082

>  <SCORE.INTRA.norm>
0.19725

>  <SCORE.RESTR>
0

>  <SCORE.RESTR.CAVITY>
0

>  <SCORE.RESTR.norm>
0

>  <SCORE.SYSTEM>
-21.2003

>  <SCORE.SYSTEM.CONST>
0

>  <SCORE.SYSTEM.DIHEDRAL>
4.97385

>  <SCORE.SYSTEM.POLAR>
-3.01281

>  <SCORE.SYSTEM.SOLV>
-0.0201998

>  <SCORE.SYSTEM.VDW>
-5.74203

>  <SCORE.SYSTEM.norm>
-1.9273

>  <SCORE.heavy>
11

>  <SCORE.norm>
-3.55748

$$$$
P79187767
 OpenBabel12072022113D
libRbt.so/2013.1/901 2013/11/27
 12 13  0  0  0  0  0  0  0  0999 V2000
  -30.4926   17.6628  -15.0828 C   0  0  0  0  0  0  0  0  0  0  0  0
  -30.8833   16.2386  -15.4431 C   0  0  0  0  0  0  0  0  0  0  0  0
  -29.8789   15.7882  -16.4168 N   0  0  1  0  0  0  0  0  0  0  0  0
  -29.6135   16.9781  -17.2448 C   0  0  0  0  0  0  0  0  0  0  0  0
  -29.8088   18.2017  -16.3361 C   0  0  1  0  0  0  0  0  0  0  0  0
  -30.6645   19.2251  -16.9970 N   0  0  0  0  0  0  0  0  0  0  0  0
  -31.7414   18.9169  -17.7284 C   0  0  0  0  0  0  0  0  0  0  0  0
  -32.6640   18.6507  -18.3724 N   0  0  0  0  0  0  0  0  0  0  0  0
  -28.6581   15.2675  -15.7726 C   0  0  0  0  0  0  0  0  0  0  0  0
  -28.1386   13.9173  -16.1858 C   0  0  0  0  0  0  0  0  0  0  0  0
  -27.4018   15.1586  -16.5936 C   0  0  0  0  0  0  0  0  0  0  0  0
  -30.1792   20.1102  -17.1790 H   0  0  0  0  0  0  0  0  0  0  0  0
  1  2  1  0  0  0  0
  1  5  1  0  0  0  0
  2  3  1  0  0  0  0
  3  4  1  0  0  0  0
  3  9  1  1  0  0  0
  4  5  1  0  0  0  0
  5  6  1  6  0  0  0
  6  7  1  0  0  0  0
  6 12  1  0  0  0  0
  7  8  3  0  0  0  0
  9 10  1  0  0  0  0
  9 11  1  0  0  0  0
 10 11  1  0  0  0  0
M  END
>  <CHROM.0>
-58.32893055,-61.10231663,-64.16995175,-43.11332705,-56.56437148,-60.75717337
-67.42511212,-57.64693126,-168.79613484

>  <CHROM.1>
128.87068564,-76.39245533,-29.98272290,16.90611238,-16.55626255,2.70127012
0.81509026,-1.31100766

>  <Name>
P79187767

>  <RI>
0

>  <Rbt.Current_Directory>
/home/fstefaniak/projects/zuza/docking/adenine/4TZX

>  <Rbt.Executable>
rbdock ($Id: //depot/dev/client3/rdock/2013.1/src/exe/rbdock.cxx#4 $)

>  <Rbt.Library>
libRbt.so (2013.1, Build901 2013/11/27)

>  <Rbt.Parameter_File>
/home/fstefaniak/progs/rDock//data/scripts/dock_solv.prm

>  <Rbt.Receptor>
4tzx.prm

>  <SCORE>
-38.9426

>  <SCORE.INTER>
-19.5867

>  <SCORE.INTER.CONST>
1

>  <SCORE.INTER.POLAR>
-1.60284

>  <SCORE.INTER.ROT>
2

>  <SCORE.INTER.SOLV>
12.1163

>  <SCORE.INTER.VDW>
-16.6871

>  <SCORE.INTER.norm>
-1.78061

>  <SCORE.INTRA>
1.75968

>  <SCORE.INTRA.DIHEDRAL>
0.273644

>  <SCORE.INTRA.DIHEDRAL.0>
2.00371

>  <SCORE.INTRA.POLAR>
0

>  <SCORE.INTRA.POLAR.0>
0

>  <SCORE.INTRA.REPUL>
0

>  <SCORE.INTRA.REPUL.0>
0

>  <SCORE.INTRA.SOLV>
0.304847

>  <SCORE.INTRA.SOLV.lig_0>
-11.968

>  <SCORE.INTRA.VDW>
1.47044

>  <SCORE.INTRA.VDW.0>
-0.667082

>  <SCORE.INTRA.norm>
0.159971

>  <SCORE.RESTR>
0

>  <SCORE.RESTR.CAVITY>
0

>  <SCORE.RESTR.norm>
0

>  <SCORE.SYSTEM>
-21.1156

>  <SCORE.SYSTEM.CONST>
0

>  <SCORE.SYSTEM.DIHEDRAL>
4.38521

>  <SCORE.SYSTEM.POLAR>
-3.07037

>  <SCORE.SYSTEM.SOLV>
0.196838

>  <SCORE.SYSTEM.VDW>
-5.36984

>  <SCORE.SYSTEM.norm>
-1.9196

>  <SCORE.heavy>
11

>  <SCORE.norm>
-3.54024

$$$$
P79187767
 OpenBabel12072022113D
libRbt.so/2013.1/901 2013/11/27
 12 13  0  0  0  0  0  0  0  0999 V2000
  -30.5433   17.6694  -15.0891 C   0  0  0  0  0  0  0  0  0  0  0  0
  -30.9089   16.2429  -15.4664 C   0  0  0  0  0  0  0  0  0  0  0  0
  -29.8806   15.8123  -16.4240 N   0  0  1  0  0  0  0  0  0  0  0  0
  -29.6149   17.0113  -17.2387 C   0  0  0  0  0  0  0  0  0  0  0  0
  -29.8430   18.2258  -16.3255 C   0  0  1  0  0  0  0  0  0  0  0  0
  -30.6992   19.2429  -16.9955 N   0  0  0  0  0  0  0  0  0  0  0  0
  -31.7818   18.9284  -17.7158 C   0  0  0  0  0  0  0  0  0  0  0  0
  -32.7092   18.6564  -18.3503 N   0  0  0  0  0  0  0  0  0  0  0  0
  -28.6656   15.3026  -15.7604 C   0  0  0  0  0  0  0  0  0  0  0  0
  -28.0779   13.9976  -16.2245 C   0  0  0  0  0  0  0  0  0  0  0  0
  -27.3757   15.2862  -16.5350 C   0  0  0  0  0  0  0  0  0  0  0  0
  -30.2119   20.1236  -17.1930 H   0  0  0  0  0  0  0  0  0  0  0  0
  1  2  1  0  0  0  0
  1  5  1  0  0  0  0
  2  3  1  0  0  0  0
  3  4  1  0  0  0  0
  3  9  1  1  0  0  0
  4  5  1  0  0  0  0
  5  6  1  6  0  0  0
  6  7  1  0  0  0  0
  6 12  1  0  0  0  0
  7  8  3  0  0  0  0
  9 10  1  0  0  0  0
  9 11  1  0  0  0  0
 10 11  1  0  0  0  0
M  END
>  <CHROM.0>
-56.61115945,-60.48051481,-64.45632786,-43.45210832,-54.60866040,-59.30330032
-65.33916869,-54.31130090,-169.60478066

>  <CHROM.1>
132.18347291,-74.29504264,-29.99645131,16.93998695,-16.55219251,2.60243732
0.73790929,-1.16231051

>  <Name>
P79187767

>  <RI>
0

>  <Rbt.Current_Directory>
/home/fstefaniak/projects/zuza/docking/adenine/4TZX

>  <Rbt.Executable>
rbdock ($Id: //depot/dev/client3/rdock/2013.1/src/exe/rbdock.cxx#4 $)

>  <Rbt.Library>
libRbt.so (2013.1, Build901 2013/11/27)

>  <Rbt.Parameter_File>
/home/fstefaniak/progs/rDock//data/scripts/dock_solv.prm

>  <Rbt.Receptor>
4tzx.prm

>  <SCORE>
-38.9411

>  <SCORE.INTER>
-19.8722

>  <SCORE.INTER.CONST>
1

>  <SCORE.INTER.POLAR>
-1.57764

>  <SCORE.INTER.ROT>
2

>  <SCORE.INTER.SOLV>
12.1421

>  <SCORE.INTER.VDW>
-16.97

>  <SCORE.INTER.norm>
-1.80656

>  <SCORE.INTRA>
1.89676

>  <SCORE.INTRA.DIHEDRAL>
0.223628

>  <SCORE.INTRA.DIHEDRAL.0>
2.00371

>  <SCORE.INTRA.POLAR>
0

>  <SCORE.INTRA.POLAR.0>
0

>  <SCORE.INTRA.REPUL>
0

>  <SCORE.INTRA.REPUL.0>
0

>  <SCORE.INTRA.SOLV>
0.30898

>  <SCORE.INTRA.SOLV.lig_0>
-11.968

>  <SCORE.INTRA.VDW>
1.63046

>  <SCORE.INTRA.VDW.0>
-0.667082

>  <SCORE.INTRA.norm>
0.172433

>  <SCORE.RESTR>
0

>  <SCORE.RESTR.CAVITY>
0

>  <SCORE.RESTR.norm>
0

>  <SCORE.SYSTEM>
-20.9657

>  <SCORE.SYSTEM.CONST>
0

>  <SCORE.SYSTEM.DIHEDRAL>
4.38728

>  <SCORE.SYSTEM.POLAR>
-3.07898

>  <SCORE.SYSTEM.SOLV>
0.213951

>  <SCORE.SYSTEM.VDW>
-5.24761

>  <SCORE.SYSTEM.norm>
-1.90597

>  <SCORE.heavy>
11

>  <SCORE.norm>
-3.5401

$$$$
P79647323
 OpenBabel12072022113D
libRbt.so/2013.1/901 2013/11/27
 19 19  0  0  0  0  0  0  0  0999 V2000
  -27.9266   10.5593  -16.7770 C   0  0  0  0  0  0  0  0  0  0  0  0
  -26.9308   11.4722  -17.4981 C   0  0  1  0  0  0  0  0  0  0  0  0
  -27.6424   12.4822  -18.4051 C   0  0  0  0  0  0  0  0  0  0  0  0
  -28.3387   13.6029  -17.6292 C   0  0  0  0  0  0  0  0  0  0  0  0
  -27.4017   14.3319  -16.6327 C   0  0  2  0  0  0  0  0  0  0  0  0
  -26.7034   13.2961  -15.7211 C   0  0  0  0  0  0  0  0  0  0  0  0
  -26.0016   12.1911  -16.5131 C   0  0  0  0  0  0  0  0  0  0  0  0
  -28.2780   15.3013  -15.7867 C   0  0  0  0  0  0  0  0  0  0  0  0
  -29.1035   16.1217  -16.6173 O   0  0  0  0  0  0  0  0  0  0  0  0
  -26.3674   15.0958  -17.4365 N   0  0  0  0  0  0  0  0  0  0  0  0
  -25.4488   15.9738  -17.0047 C   0  0  0  0  0  0  0  0  0  0  0  0
  -24.5322   16.4267  -17.8705 N   0  3  0  0  0  0  0  0  0  0  0  0
  -23.8253   17.0886  -17.5770 H   0  0  0  0  0  0  0  0  0  0  0  0
  -24.4974   16.1156  -18.8317 H   0  0  0  0  0  0  0  0  0  0  0  0
  -25.3972   16.4190  -15.7575 N   0  0  0  0  0  0  0  0  0  0  0  0
  -28.5536   16.3552  -17.3945 H   0  0  0  0  0  0  0  0  0  0  0  0
  -26.3357   14.8911  -18.4259 H   0  0  0  0  0  0  0  0  0  0  0  0
  -26.1828   16.2144  -15.1318 H   0  0  0  0  0  0  0  0  0  0  0  0
  -24.6966   17.0606  -15.4209 H   0  0  0  0  0  0  0  0  0  0  0  0
  2  1  1  1  0  0  0
  2  3  1  0  0  0  0
  2  7  1  0  0  0  0
  3  4  1  0  0  0  0
  4  5  1  0  0  0  0
  5  6  1  0  0  0  0
  5  8  1  1  0  0  0
  5 10  1  0  0  0  0
  6  7  1  0  0  0  0
  8  9  1  0  0  0  0
  9 16  1  0  0  0  0
 10 11  1  0  0  0  0
 10 17  1  0  0  0  0
 11 12  2  0  0  0  0
 11 15  1  0  0  0  0
 12 13  1  0  0  0  0
 12 14  1  0  0  0  0
 15 18  1  0  0  0  0
 15 19  1  0  0  0  0
M  CHG  1  12   1
M  END
>  <CHROM.0>
-57.85472999,-70.49375565,-71.73344888,-43.05159327,-179.68234429,-56.53778886
-170.71035445,-65.38441853,-167.06387210

>  <CHROM.1>
-50.57171711,172.33647675,-38.69232666,-26.92796141,14.16214499,-16.89850064
-1.90336769,0.14674255,0.12933710

>  <Name>
P79647323

>  <RI>
0

>  <Rbt.Current_Directory>
/home/fstefaniak/projects/zuza/docking/adenine/4TZX

>  <Rbt.Executable>
rbdock ($Id: //depot/dev/client3/rdock/2013.1/src/exe/rbdock.cxx#4 $)

>  <Rbt.Library>
libRbt.so (2013.1, Build901 2013/11/27)

>  <Rbt.Parameter_File>
/home/fstefaniak/progs/rDock//data/scripts/dock_solv.prm

>  <Rbt.Receptor>
4tzx.prm

>  <SCORE>
-43.4345

>  <SCORE.INTER>
-27.6352

>  <SCORE.INTER.CONST>
1

>  <SCORE.INTER.POLAR>
-5.61048

>  <SCORE.INTER.ROT>
2

>  <SCORE.INTER.SOLV>
21.7727

>  <SCORE.INTER.VDW>
-11.9127

>  <SCORE.INTER.norm>
-2.12578

>  <SCORE.INTRA>
3.7103

>  <SCORE.INTRA.DIHEDRAL>
1.44008

>  <SCORE.INTRA.DIHEDRAL.0>
3.32055

>  <SCORE.INTRA.POLAR>
0.912838

>  <SCORE.INTRA.POLAR.0>
-0.912838

>  <SCORE.INTRA.REPUL>
0

>  <SCORE.INTRA.REPUL.0>
0

>  <SCORE.INTRA.SOLV>
-1.32563

>  <SCORE.INTRA.SOLV.lig_0>
-26.9594

>  <SCORE.INTRA.VDW>
0.54943

>  <SCORE.INTRA.VDW.0>
-0.215855

>  <SCORE.INTRA.norm>
0.285408

>  <SCORE.RESTR>
0.929565

>  <SCORE.RESTR.CAVITY>
0.929565

>  <SCORE.RESTR.norm>
0.071505

>  <SCORE.SYSTEM>
-20.4392

>  <SCORE.SYSTEM.CONST>
0

>  <SCORE.SYSTEM.DIHEDRAL>
5.86425

>  <SCORE.SYSTEM.POLAR>
-3.05695

>  <SCORE.SYSTEM.SOLV>
-0.0323359

>  <SCORE.SYSTEM.VDW>
-5.3803

>  <SCORE.SYSTEM.norm>
-1.57225

>  <SCORE.heavy>
13

>  <SCORE.norm>
-3.34112

$$$$
P79647323
 OpenBabel12072022113D
libRbt.so/2013.1/901 2013/11/27
 19 19  0  0  0  0  0  0  0  0999 V2000
  -27.8943   10.5913  -16.7886 C   0  0  0  0  0  0  0  0  0  0  0  0
  -26.8914   11.5033  -17.5010 C   0  0  1  0  0  0  0  0  0  0  0  0
  -27.5940   12.5137  -18.4144 C   0  0  0  0  0  0  0  0  0  0  0  0
  -28.2962   13.6351  -17.6448 C   0  0  0  0  0  0  0  0  0  0  0  0
  -27.3674   14.3635  -16.6403 C   0  0  2  0  0  0  0  0  0  0  0  0
  -26.6780   13.3272  -15.7223 C   0  0  0  0  0  0  0  0  0  0  0  0
  -25.9702   12.2215  -16.5080 C   0  0  0  0  0  0  0  0  0  0  0  0
  -28.2503   15.3337  -15.8022 C   0  0  0  0  0  0  0  0  0  0  0  0
  -28.5471   16.5303  -16.5265 O   0  0  0  0  0  0  0  0  0  0  0  0
  -26.3254   15.1264  -17.4351 N   0  0  0  0  0  0  0  0  0  0  0  0
  -25.4082   16.0017  -16.9949 C   0  0  0  0  0  0  0  0  0  0  0  0
  -24.4841   16.4539  -17.8531 N   0  3  0  0  0  0  0  0  0  0  0  0
  -23.7779   17.1138  -17.5532 H   0  0  0  0  0  0  0  0  0  0  0  0
  -24.4427   16.1442  -18.8146 H   0  0  0  0  0  0  0  0  0  0  0  0
  -25.3650   16.4448  -15.7467 N   0  0  0  0  0  0  0  0  0  0  0  0
  -28.6208   16.2631  -17.4668 H   0  0  0  0  0  0  0  0  0  0  0  0
  -26.2867   14.9231  -18.4245 H   0  0  0  0  0  0  0  0  0  0  0  0
  -26.1557   16.2409  -15.1273 H   0  0  0  0  0  0  0  0  0  0  0  0
  -24.6656   17.0843  -15.4038 H   0  0  0  0  0  0  0  0  0  0  0  0
  2  1  1  1  0  0  0
  2  3  1  0  0  0  0
  2  7  1  0  0  0  0
  3  4  1  0  0  0  0
  4  5  1  0  0  0  0
  5  6  1  0  0  0  0
  5  8  1  1  0  0  0
  5 10  1  0  0  0  0
  6  7  1  0  0  0  0
  8  9  1  0  0  0  0
  9 16  1  0  0  0  0
 10 11  1  0  0  0  0
 10 17  1  0  0  0  0
 11 12  2  0  0  0  0
 11 15  1  0  0  0  0
 12 13  1  0  0  0  0
 12 14  1  0  0  0  0
 15 18  1  0  0  0  0
 15 19  1  0  0  0  0
M  CHG  1  12   1
M  END
>  <CHROM.0>
-55.00744947,-71.08612704,-45.09397723,-42.87861412,-173.14216294,-62.56743613
-64.22925845,-55.04666879,-169.06019422

>  <CHROM.1>
-78.94091316,172.48084194,33.77163423,-26.84681749,14.22422599,-16.89226732
-1.88072441,0.18172971,0.14562770

>  <Name>
P79647323

>  <RI>
0

>  <Rbt.Current_Directory>
/home/fstefaniak/projects/zuza/docking/adenine/4TZX

>  <Rbt.Executable>
rbdock ($Id: //depot/dev/client3/rdock/2013.1/src/exe/rbdock.cxx#4 $)

>  <Rbt.Library>
libRbt.so (2013.1, Build901 2013/11/27)

>  <Rbt.Parameter_File>
/home/fstefaniak/progs/rDock//data/scripts/dock_solv.prm

>  <Rbt.Receptor>
4tzx.prm

>  <SCORE>
-42.7236

>  <SCORE.INTER>
-27.496

>  <SCORE.INTER.CONST>
1

>  <SCORE.INTER.POLAR>
-5.56969

>  <SCORE.INTER.ROT>
2

>  <SCORE.INTER.SOLV>
21.7001

>  <SCORE.INTER.VDW>
-11.9317

>  <SCORE.INTER.norm>
-2.11507

>  <SCORE.INTRA>
4.46232

>  <SCORE.INTRA.DIHEDRAL>
3.25843

>  <SCORE.INTRA.DIHEDRAL.0>
3.32055

>  <SCORE.INTRA.POLAR>
0.912838

>  <SCORE.INTRA.POLAR.0>
-0.912838

>  <SCORE.INTRA.REPUL>
0

>  <SCORE.INTRA.REPUL.0>
0

>  <SCORE.INTRA.SOLV>
-0.905278

>  <SCORE.INTRA.SOLV.lig_0>
-26.9594

>  <SCORE.INTRA.VDW>
0.182094

>  <SCORE.INTRA.VDW.0>
-0.215855

>  <SCORE.INTRA.norm>
0.343255

>  <SCORE.RESTR>
0.921084

>  <SCORE.RESTR.CAVITY>
0.921084

>  <SCORE.RESTR.norm>
0.0708526

>  <SCORE.SYSTEM>
-20.6111

>  <SCORE.SYSTEM.CONST>
0

>  <SCORE.SYSTEM.DIHEDRAL>
6.0549

>  <SCORE.SYSTEM.POLAR>
-3.22807

>  <SCORE.SYSTEM.SOLV>
0.0380097

>  <SCORE.SYSTEM.VDW>
-5.01145

>  <SCORE.SYSTEM.norm>
-1.58547

>  <SCORE.heavy>
13

>  <SCORE.norm>
-3.28643

$$$$
P79647323
 OpenBabel12072022113D
libRbt.so/2013.1/901 2013/11/27
 19 19  0  0  0  0  0  0  0  0999 V2000
  -27.9263   10.6228  -16.8220 C   0  0  0  0  0  0  0  0  0  0  0  0
  -26.9162   11.5308  -17.5292 C   0  0  1  0  0  0  0  0  0  0  0  0
  -27.6107   12.5498  -18.4394 C   0  0  0  0  0  0  0  0  0  0  0  0
  -28.3064   13.6727  -17.6662 C   0  0  0  0  0  0  0  0  0  0  0  0
  -27.3741   14.3906  -16.6574 C   0  0  2  0  0  0  0  0  0  0  0  0
  -26.6931   13.3460  -15.7428 C   0  0  0  0  0  0  0  0  0  0  0  0
  -25.9917   12.2387  -16.5319 C   0  0  0  0  0  0  0  0  0  0  0  0
  -28.2516   15.3634  -15.8166 C   0  0  0  0  0  0  0  0  0  0  0  0
  -28.8079   16.4014  -16.6275 O   0  0  0  0  0  0  0  0  0  0  0  0
  -26.3258   15.1497  -17.4475 N   0  0  0  0  0  0  0  0  0  0  0  0
  -25.4103   16.0251  -17.0040 C   0  0  0  0  0  0  0  0  0  0  0  0
  -24.4799   16.4735  -17.8574 N   0  3  0  0  0  0  0  0  0  0  0  0
  -23.7748   17.1333  -17.5548 H   0  0  0  0  0  0  0  0  0  0  0  0
  -24.4326   16.1608  -18.8176 H   0  0  0  0  0  0  0  0  0  0  0  0
  -25.3747   16.4719  -15.7569 N   0  0  0  0  0  0  0  0  0  0  0  0
  -29.3083   16.9808  -16.0152 H   0  0  0  0  0  0  0  0  0  0  0  0
  -26.2809   14.9435  -18.4361 H   0  0  0  0  0  0  0  0  0  0  0  0
  -26.1698   16.2709  -15.1420 H   0  0  0  0  0  0  0  0  0  0  0  0
  -24.6767   17.1114  -15.4112 H   0  0  0  0  0  0  0  0  0  0  0  0
  2  1  1  1  0  0  0
  2  3  1  0  0  0  0
  2  7  1  0  0  0  0
  3  4  1  0  0  0  0
  4  5  1  0  0  0  0
  5  6  1  0  0  0  0
  5  8  1  1  0  0  0
  5 10  1  0  0  0  0
  6  7  1  0  0  0  0
  8  9  1  0  0  0  0
  9 16  1  0  0  0  0
 10 11  1  0  0  0  0
 10 17  1  0  0  0  0
 11 12  2  0  0  0  0
 11 15  1  0  0  0  0
 12 13  1  0  0  0  0
 12 14  1  0  0  0  0
 15 18  1  0  0  0  0
 15 19  1  0  0  0  0
M  CHG  1  12   1
M  END
>  <CHROM.0>
-56.17307193,171.29364760,-66.43036801,-42.08826170,-54.51238724,-174.84461637
-66.36203139,-174.06658950,-168.00172242

>  <CHROM.1>
-64.80194945,171.89187120,-177.70053266,-26.88317412,14.24113228,-16.90959271
-1.88679514,0.16570845,0.14580484

>  <Name>
P79647323

>  <RI>
0

>  <Rbt.Current_Directory>
/home/fstefaniak/projects/zuza/docking/adenine/4TZX

>  <Rbt.Executable>
rbdock ($Id: //depot/dev/client3/rdock/2013.1/src/exe/rbdock.cxx#4 $)

>  <Rbt.Library>
libRbt.so (2013.1, Build901 2013/11/27)

>  <Rbt.Parameter_File>
/home/fstefaniak/progs/rDock//data/scripts/dock_solv.prm

>  <Rbt.Receptor>
4tzx.prm

>  <SCORE>
-41.6304

>  <SCORE.INTER>
-24.5095

>  <SCORE.INTER.CONST>
1

>  <SCORE.INTER.POLAR>
-4.89391

>  <SCORE.INTER.ROT>
2

>  <SCORE.INTER.SOLV>
21.9159

>  <SCORE.INTER.VDW>
-12.2652

>  <SCORE.INTER.norm>
-1.88534

>  <SCORE.INTRA>
2.26362

>  <SCORE.INTRA.DIHEDRAL>
-0.710979

>  <SCORE.INTRA.DIHEDRAL.0>
3.32055

>  <SCORE.INTRA.POLAR>
0.881744

>  <SCORE.INTRA.POLAR.0>
-0.912838

>  <SCORE.INTRA.REPUL>
0

>  <SCORE.INTRA.REPUL.0>
0

>  <SCORE.INTRA.SOLV>
-1.0953

>  <SCORE.INTRA.SOLV.lig_0>
-26.9594

>  <SCORE.INTRA.VDW>
0.168829

>  <SCORE.INTRA.VDW.0>
-0.215855

>  <SCORE.INTRA.norm>
0.174124

>  <SCORE.RESTR>
0.887422

>  <SCORE.RESTR.CAVITY>
0.887422

>  <SCORE.RESTR.norm>
0.0682632

>  <SCORE.SYSTEM>
-20.272

>  <SCORE.SYSTEM.CONST>
0

>  <SCORE.SYSTEM.DIHEDRAL>
5.39631

>  <SCORE.SYSTEM.POLAR>
-3.1008

>  <SCORE.SYSTEM.SOLV>
-0.0647486

>  <SCORE.SYSTEM.VDW>
-4.95585

>  <SCORE.SYSTEM.norm>
-1.55938

>  <SCORE.heavy>
13

>  <SCORE.norm>
-3.20234

$$$$
P81831364
 OpenBabel12072022113D
libRbt.so/2013.1/901 2013/11/27
 11 11  0  0  0  0  0  0  0  0999 V2000
  -28.9910   15.4108  -16.1013 C   0  0  0  0  0  0  0  0  0  0  0  0
  -30.0952   16.3243  -16.6407 C   0  0  2  0  0  0  0  0  0  0  0  0
  -29.4994   17.3379  -17.6631 C   0  0  0  0  0  0  0  0  0  0  0  0
  -30.5113   18.2093  -18.2841 N   0  0  0  0  0  0  0  0  0  0  0  0
  -31.3422   18.8410  -17.2492 C   0  0  0  0  0  0  0  0  0  0  0  0
  -31.9445   17.8204  -16.2592 C   0  0  0  0  0  0  0  0  0  0  0  0
  -30.9422   16.9586  -15.5903 N   0  0  0  0  0  0  0  0  0  0  0  0
  -30.1863   17.7341  -14.5791 C   0  0  0  0  0  0  0  0  0  0  0  0
  -31.0227   18.2456  -13.4685 C   0  0  0  0  0  0  0  0  0  0  0  0
  -31.6529   18.6516  -12.5808 N   0  0  0  0  0  0  0  0  0  0  0  0
  -31.1173   17.6232  -18.8607 H   0  0  0  0  0  0  0  0  0  0  0  0
  2  3  1  0  0  0  0
  2  7  1  0  0  0  0
  2  1  1  1  0  0  0
  3  4  1  0  0  0  0
  4  5  1  0  0  0  0
  4 11  1  0  0  0  0
  5  6  1  0  0  0  0
  6  7  1  0  0  0  0
  7  8  1  0  0  0  0
  8  9  1  0  0  0  0
  9 10  3  0  0  0  0
M  END
>  <CHROM.0>
-58.09248448,-62.01571675,-65.52000541,-42.68958158,-176.39010989,-60.62838783
-66.70570586,-58.43951286,-168.64250485

>  <CHROM.1>
-174.25167710,-30.60835954,17.53705956,-15.89410484,-1.12569048,-0.89697804
1.68313393

>  <Name>
P81831364

>  <RI>
0

>  <Rbt.Current_Directory>
/home/fstefaniak/projects/zuza/docking/adenine/4TZX

>  <Rbt.Executable>
rbdock ($Id: //depot/dev/client3/rdock/2013.1/src/exe/rbdock.cxx#4 $)

>  <Rbt.Library>
libRbt.so (2013.1, Build901 2013/11/27)

>  <Rbt.Parameter_File>
/home/fstefaniak/progs/rDock//data/scripts/dock_solv.prm

>  <Rbt.Receptor>
4tzx.prm

>  <SCORE>
-36.5094

>  <SCORE.INTER>
-14.9028

>  <SCORE.INTER.CONST>
1

>  <SCORE.INTER.POLAR>
-0.926831

>  <SCORE.INTER.ROT>
1

>  <SCORE.INTER.SOLV>
11.8097

>  <SCORE.INTER.VDW>
-15.049

>  <SCORE.INTER.norm>
-1.49028

>  <SCORE.INTRA>
-0.337549

>  <SCORE.INTRA.DIHEDRAL>
-0.942922

>  <SCORE.INTRA.DIHEDRAL.0>
0.978708

>  <SCORE.INTRA.POLAR>
0

>  <SCORE.INTRA.POLAR.0>
0

>  <SCORE.INTRA.REPUL>
0

>  <SCORE.INTRA.REPUL.0>
0

>  <SCORE.INTRA.SOLV>
-0.0786787

>  <SCORE.INTRA.SOLV.lig_0>
-11.4719

>  <SCORE.INTRA.VDW>
0.173252

>  <SCORE.INTRA.VDW.0>
-0.218411

>  <SCORE.INTRA.norm>
-0.0337549

>  <SCORE.RESTR>
0

>  <SCORE.RESTR.CAVITY>
0

>  <SCORE.RESTR.norm>
0

>  <SCORE.SYSTEM>
-21.269

>  <SCORE.SYSTEM.CONST>
0

>  <SCORE.SYSTEM.DIHEDRAL>
4.48279

>  <SCORE.SYSTEM.POLAR>
-3.06858

>  <SCORE.SYSTEM.SOLV>
0.00859967

>  <SCORE.SYSTEM.VDW>
-5.44785

>  <SCORE.SYSTEM.norm>
-2.1269

>  <SCORE.heavy>
10

>  <SCORE.norm>
-3.65094

$$$$
P81831364
 OpenBabel12072022113D
libRbt.so/2013.1/901 2013/11/27
 11 11  0  0  0  0  0  0  0  0999 V2000
  -28.9626   15.4598  -16.1045 C   0  0  0  0  0  0  0  0  0  0  0  0
  -30.0792   16.3529  -16.6524 C   0  0  2  0  0  0  0  0  0  0  0  0
  -29.4962   17.3695  -17.6791 C   0  0  0  0  0  0  0  0  0  0  0  0
  -30.5196   18.2215  -18.3082 N   0  0  0  0  0  0  0  0  0  0  0  0
  -31.3631   18.8464  -17.2794 C   0  0  0  0  0  0  0  0  0  0  0  0
  -31.9524   17.8226  -16.2851 C   0  0  0  0  0  0  0  0  0  0  0  0
  -30.9389   16.9803  -15.6082 N   0  0  0  0  0  0  0  0  0  0  0  0
  -30.1980   17.7733  -14.5995 C   0  0  0  0  0  0  0  0  0  0  0  0
  -31.0400   18.2552  -13.4799 C   0  0  0  0  0  0  0  0  0  0  0  0
  -31.6747   18.6386  -12.5854 N   0  0  0  0  0  0  0  0  0  0  0  0
  -31.1148   17.6227  -18.8830 H   0  0  0  0  0  0  0  0  0  0  0  0
  2  3  1  0  0  0  0
  2  7  1  0  0  0  0
  2  1  1  1  0  0  0
  3  4  1  0  0  0  0
  4  5  1  0  0  0  0
  4 11  1  0  0  0  0
  5  6  1  0  0  0  0
  6  7  1  0  0  0  0
  7  8  1  0  0  0  0
  8  9  1  0  0  0  0
  9 10  3  0  0  0  0
M  END
>  <CHROM.0>
-59.58973629,-63.63275791,-67.68887800,-42.65491184,-176.66171148,-62.91410213
-65.47978023,-173.67044934,-169.04795855

>  <CHROM.1>
-173.07080989,-30.61170874,17.55585085,-15.91070508,-1.13357976,-0.87906859
1.68152283

>  <Name>
P81831364

>  <RI>
0

>  <Rbt.Current_Directory>
/home/fstefaniak/projects/zuza/docking/adenine/4TZX

>  <Rbt.Executable>
rbdock ($Id: //depot/dev/client3/rdock/2013.1/src/exe/rbdock.cxx#4 $)

>  <Rbt.Library>
libRbt.so (2013.1, Build901 2013/11/27)

>  <Rbt.Parameter_File>
/home/fstefaniak/progs/rDock//data/scripts/dock_solv.prm

>  <Rbt.Receptor>
4tzx.prm

>  <SCORE>
-36.472

>  <SCORE.INTER>
-14.8103

>  <SCORE.INTER.CONST>
1

>  <SCORE.INTER.POLAR>
-0.935404

>  <SCORE.INTER.ROT>
1

>  <SCORE.INTER.SOLV>
11.7862

>  <SCORE.INTER.VDW>
-14.9509

>  <SCORE.INTER.norm>
-1.48103

>  <SCORE.INTRA>
-0.359651

>  <SCORE.INTRA.DIHEDRAL>
-0.923375

>  <SCORE.INTRA.DIHEDRAL.0>
0.978708

>  <SCORE.INTRA.POLAR>
0

>  <SCORE.INTRA.POLAR.0>
0

>  <SCORE.INTRA.REPUL>
0

>  <SCORE.INTRA.REPUL.0>
0

>  <SCORE.INTRA.SOLV>
-0.0816064

>  <SCORE.INTRA.SOLV.lig_0>
-11.4719

>  <SCORE.INTRA.VDW>
0.14284

>  <SCORE.INTRA.VDW.0>
-0.218411

>  <SCORE.INTRA.norm>
-0.0359651

>  <SCORE.RESTR>
0

>  <SCORE.RESTR.CAVITY>
0

>  <SCORE.RESTR.norm>
0

>  <SCORE.SYSTEM>
-21.3021

>  <SCORE.SYSTEM.CONST>
0

>  <SCORE.SYSTEM.DIHEDRAL>
4.73569

>  <SCORE.SYSTEM.POLAR>
-3.0513

>  <SCORE.SYSTEM.SOLV>
-0.134514

>  <SCORE.SYSTEM.VDW>
-5.56413

>  <SCORE.SYSTEM.norm>
-2.13021

>  <SCORE.heavy>
10

>  <SCORE.norm>
-3.6472

$$$$
P81831364
 OpenBabel12072022113D
libRbt.so/2013.1/901 2013/11/27
 11 11  0  0  0  0  0  0  0  0999 V2000
  -28.7613   15.0701  -15.9492 C   0  0  0  0  0  0  0  0  0  0  0  0
  -29.8638   16.1168  -16.1326 C   0  0  2  0  0  0  0  0  0  0  0  0
  -29.5295   17.0399  -17.3424 C   0  0  0  0  0  0  0  0  0  0  0  0
  -30.5784   18.0325  -17.6315 N   0  0  0  0  0  0  0  0  0  0  0  0
  -30.9292   18.7714  -16.4102 C   0  0  0  0  0  0  0  0  0  0  0  0
  -31.2814   17.8422  -15.2284 C   0  0  0  0  0  0  0  0  0  0  0  0
  -30.2242   16.8605  -14.8916 N   0  0  0  0  0  0  0  0  0  0  0  0
  -29.0841   17.5357  -14.2287 C   0  0  0  0  0  0  0  0  0  0  0  0
  -29.3669   17.9634  -12.8388 C   0  0  0  0  0  0  0  0  0  0  0  0
  -29.5583   18.3018  -11.7439 N   0  0  0  0  0  0  0  0  0  0  0  0
  -31.4092   17.5275  -17.9442 H   0  0  0  0  0  0  0  0  0  0  0  0
  2  3  1  0  0  0  0
  2  7  1  0  0  0  0
  2  1  1  1  0  0  0
  3  4  1  0  0  0  0
  4  5  1  0  0  0  0
  4 11  1  0  0  0  0
  5  6  1  0  0  0  0
  6  7  1  0  0  0  0
  7  8  1  0  0  0  0
  8  9  1  0  0  0  0
  9 10  3  0  0  0  0
M  END
>  <CHROM.0>
-59.91425152,-63.20532012,59.67112481,-42.90881531,-176.72502315,169.38407682
-62.29425675,-175.80916148,-168.81750927

>  <CHROM.1>
-164.85842521,-29.92840603,17.33813242,-15.29296166,-1.80089407,-0.96991181
1.19488946

>  <Name>
P81831364

>  <RI>
0

>  <Rbt.Current_Directory>
/home/fstefaniak/projects/zuza/docking/adenine/4TZX

>  <Rbt.Executable>
rbdock ($Id: //depot/dev/client3/rdock/2013.1/src/exe/rbdock.cxx#4 $)

>  <Rbt.Library>
libRbt.so (2013.1, Build901 2013/11/27)

>  <Rbt.Parameter_File>
/home/fstefaniak/progs/rDock//data/scripts/dock_solv.prm

>  <Rbt.Receptor>
4tzx.prm

>  <SCORE>
-36.4417

>  <SCORE.INTER>
-18.9523

>  <SCORE.INTER.CONST>
1

>  <SCORE.INTER.POLAR>
-2.28743

>  <SCORE.INTER.ROT>
1

>  <SCORE.INTER.SOLV>
11.6497

>  <SCORE.INTER.VDW>
-13.16

>  <SCORE.INTER.norm>
-1.89523

>  <SCORE.INTRA>
-0.39542

>  <SCORE.INTRA.DIHEDRAL>
-0.672541

>  <SCORE.INTRA.DIHEDRAL.0>
0.978708

>  <SCORE.INTRA.POLAR>
0

>  <SCORE.INTRA.POLAR.0>
0

>  <SCORE.INTRA.REPUL>
0

>  <SCORE.INTRA.REPUL.0>
0

>  <SCORE.INTRA.SOLV>
-0.102013

>  <SCORE.INTRA.SOLV.lig_0>
-11.4719

>  <SCORE.INTRA.VDW>
-0.00814277

>  <SCORE.INTRA.VDW.0>
-0.218411

>  <SCORE.INTRA.norm>
-0.039542

>  <SCORE.RESTR>
0

>  <SCORE.RESTR.CAVITY>
0

>  <SCORE.RESTR.norm>
0

>  <SCORE.SYSTEM>
-17.094

>  <SCORE.SYSTEM.CONST>
0

>  <SCORE.SYSTEM.DIHEDRAL>
4.68835

>  <SCORE.SYSTEM.POLAR>
-2.52676

>  <SCORE.SYSTEM.SOLV>
-0.314195

>  <SCORE.SYSTEM.VDW>
-4.43148

>  <SCORE.SYSTEM.norm>
-1.7094

>  <SCORE.heavy>
10

>  <SCORE.norm>
-3.64417

$$$$
P81864887
 OpenBabel12072022113D
libRbt.so/2013.1/901 2013/11/27
 14 14  0  0  0  0  0  0  0  0999 V2000
  -25.9633   16.1256  -16.2160 C   0  0  0  0  0  0  0  0  0  0  0  0
  -26.2721   14.8698  -17.0260 C   0  0  0  0  0  0  0  0  0  0  0  0
  -27.6088   14.1628  -16.6745 C   0  0  0  0  0  0  0  0  0  0  0  0
  -28.1359   13.4551  -17.9408 C   0  0  0  0  0  0  0  0  0  0  0  0
  -27.3906   13.0892  -15.5908 C   0  0  0  0  0  0  0  0  0  0  0  0
  -28.6284   15.1643  -16.2115 C   0  0  0  0  0  0  0  0  0  0  0  0
  -29.1420   15.3561  -15.0132 N   0  0  0  0  0  0  0  0  0  0  0  0
  -30.0110   16.4211  -15.1237 N   0  0  0  0  0  0  0  0  0  0  0  0
  -29.9705   16.8027  -16.3834 C   0  0  0  0  0  0  0  0  0  0  0  0
  -29.1165   16.0465  -17.1413 O   0  0  0  0  0  0  0  0  0  0  0  0
  -30.7016   17.9073  -17.0591 C   0  0  0  0  0  0  0  0  0  0  0  0
  -31.8961   18.3303  -16.3186 N   0  0  0  0  0  0  0  0  0  0  0  0
  -32.4709   17.5074  -16.1338 H   0  0  0  0  0  0  0  0  0  0  0  0
  -32.4545   18.9393  -16.9134 H   0  0  0  0  0  0  0  0  0  0  0  0
  1  2  1  0  0  0  0
  2  3  1  0  0  0  0
  3  4  1  0  0  0  0
  3  5  1  0  0  0  0
  3  6  1  0  0  0  0
  6  7  2  0  0  0  0
  6 10  1  0  0  0  0
  7  8  1  0  0  0  0
  8  9  2  0  0  0  0
  9 10  1  0  0  0  0
  9 11  1  0  0  0  0
 11 12  1  0  0  0  0
 12 13  1  0  0  0  0
 12 14  1  0  0  0  0
M  END
>  <CHROM.0>
-60.73532889,179.84314433,-169.87672564,-42.05462702,-173.85095993,-56.46023883
-52.07692014,-57.53692904,-168.85221897

>  <CHROM.1>
150.54221975,-110.38534374,-20.36385047,-53.02278831,-28.75656509,15.66343019
-16.40448174,-0.70115956,0.17442582,-0.13620222

>  <Name>
P81864887

>  <RI>
0

>  <Rbt.Current_Directory>
/home/fstefaniak/projects/zuza/docking/adenine/4TZX

>  <Rbt.Executable>
rbdock ($Id: //depot/dev/client3/rdock/2013.1/src/exe/rbdock.cxx#4 $)

>  <Rbt.Library>
libRbt.so (2013.1, Build901 2013/11/27)

>  <Rbt.Parameter_File>
/home/fstefaniak/progs/rDock//data/scripts/dock_solv.prm

>  <Rbt.Receptor>
4tzx.prm

>  <SCORE>
-43.9711

>  <SCORE.INTER>
-27.3879

>  <SCORE.INTER.CONST>
1

>  <SCORE.INTER.POLAR>
-3.68366

>  <SCORE.INTER.ROT>
4

>  <SCORE.INTER.SOLV>
10.7858

>  <SCORE.INTER.VDW>
-15.8417

>  <SCORE.INTER.norm>
-2.28233

>  <SCORE.INTRA>
1.79189

>  <SCORE.INTRA.DIHEDRAL>
3.1415

>  <SCORE.INTRA.DIHEDRAL.0>
2.13972

>  <SCORE.INTRA.POLAR>
0

>  <SCORE.INTRA.POLAR.0>
0

>  <SCORE.INTRA.REPUL>
0

>  <SCORE.INTRA.REPUL.0>
0

>  <SCORE.INTRA.SOLV>
0.0400629

>  <SCORE.INTRA.SOLV.lig_0>
-8.61313

>  <SCORE.INTRA.VDW>
0.201109

>  <SCORE.INTRA.VDW.0>
0.972323

>  <SCORE.INTRA.norm>
0.149324

>  <SCORE.RESTR>
0

>  <SCORE.RESTR.CAVITY>
0

>  <SCORE.RESTR.norm>
0

>  <SCORE.SYSTEM>
-18.3751

>  <SCORE.SYSTEM.CONST>
0

>  <SCORE.SYSTEM.DIHEDRAL>
5.10305

>  <SCORE.SYSTEM.POLAR>
-2.59482

>  <SCORE.SYSTEM.SOLV>
-0.044259

>  <SCORE.SYSTEM.VDW>
-5.28695

>  <SCORE.SYSTEM.norm>
-1.53126

>  <SCORE.heavy>
12

>  <SCORE.norm>
-3.66426

$$$$
P81864887
 OpenBabel12072022113D
libRbt.so/2013.1/901 2013/11/27
 14 14  0  0  0  0  0  0  0  0999 V2000
  -25.9221   16.0413  -16.1563 C   0  0  0  0  0  0  0  0  0  0  0  0
  -26.2514   14.8056  -16.9888 C   0  0  0  0  0  0  0  0  0  0  0  0
  -27.5969   14.1111  -16.6461 C   0  0  0  0  0  0  0  0  0  0  0  0
  -28.1331   13.4267  -17.9214 C   0  0  0  0  0  0  0  0  0  0  0  0
  -27.3922   13.0208  -15.5767 C   0  0  0  0  0  0  0  0  0  0  0  0
  -28.6037   15.1194  -16.1699 C   0  0  0  0  0  0  0  0  0  0  0  0
  -29.0747   15.3370  -14.9586 N   0  0  0  0  0  0  0  0  0  0  0  0
  -29.9519   16.3960  -15.0622 N   0  0  0  0  0  0  0  0  0  0  0  0
  -29.9582   16.7485  -16.3310 C   0  0  0  0  0  0  0  0  0  0  0  0
  -29.1287   15.9781  -17.1015 O   0  0  0  0  0  0  0  0  0  0  0  0
  -30.7180   17.8346  -17.0051 C   0  0  0  0  0  0  0  0  0  0  0  0
  -31.8262   18.3409  -16.1867 N   0  0  0  0  0  0  0  0  0  0  0  0
  -31.4929   18.4627  -15.2298 H   0  0  0  0  0  0  0  0  0  0  0  0
  -32.5562   17.6323  -16.1454 H   0  0  0  0  0  0  0  0  0  0  0  0
  1  2  1  0  0  0  0
  2  3  1  0  0  0  0
  3  4  1  0  0  0  0
  3  5  1  0  0  0  0
  3  6  1  0  0  0  0
  6  7  2  0  0  0  0
  6 10  1  0  0  0  0
  7  8  1  0  0  0  0
  8  9  2  0  0  0  0
  9 10  1  0  0  0  0
  9 11  1  0  0  0  0
 11 12  1  0  0  0  0
 12 13  1  0  0  0  0
 12 14  1  0  0  0  0
M  END
>  <CHROM.0>
-57.12687439,177.21824382,-62.33733635,49.06433782,-177.02558211,-175.50048821
-66.34234421,-60.98079446,-167.77767287

>  <CHROM.1>
150.93776548,-107.32471147,-15.98318021,44.25376508,-28.72865034,15.61396970
-16.34571586,-0.72349822,0.08109071,0.00489987

>  <Name>
P81864887

>  <RI>
0

>  <Rbt.Current_Directory>
/home/fstefaniak/projects/zuza/docking/adenine/4TZX

>  <Rbt.Executable>
rbdock ($Id: //depot/dev/client3/rdock/2013.1/src/exe/rbdock.cxx#4 $)

>  <Rbt.Library>
libRbt.so (2013.1, Build901 2013/11/27)

>  <Rbt.Parameter_File>
/home/fstefaniak/progs/rDock//data/scripts/dock_solv.prm

>  <Rbt.Receptor>
4tzx.prm

>  <SCORE>
-42.8868

>  <SCORE.INTER>
-27.0321

>  <SCORE.INTER.CONST>
1

>  <SCORE.INTER.POLAR>
-3.65728

>  <SCORE.INTER.ROT>
4

>  <SCORE.INTER.SOLV>
10.6128

>  <SCORE.INTER.VDW>
-15.6347

>  <SCORE.INTER.norm>
-2.25268

>  <SCORE.INTRA>
1.93258

>  <SCORE.INTRA.DIHEDRAL>
3.21513

>  <SCORE.INTRA.DIHEDRAL.0>
2.13972

>  <SCORE.INTRA.POLAR>
0

>  <SCORE.INTRA.POLAR.0>
0

>  <SCORE.INTRA.REPUL>
0

>  <SCORE.INTRA.REPUL.0>
0

>  <SCORE.INTRA.SOLV>
0.121421

>  <SCORE.INTRA.SOLV.lig_0>
-8.61313

>  <SCORE.INTRA.VDW>
0.264306

>  <SCORE.INTRA.VDW.0>
0.972323

>  <SCORE.INTRA.norm>
0.161048

>  <SCORE.RESTR>
0

>  <SCORE.RESTR.CAVITY>
0

>  <SCORE.RESTR.norm>
0

>  <SCORE.SYSTEM>
-17.7872

>  <SCORE.SYSTEM.CONST>
0

>  <SCORE.SYSTEM.DIHEDRAL>
3.75343

>  <SCORE.SYSTEM.POLAR>
-2.50067

>  <SCORE.SYSTEM.SOLV>
-0.181739

>  <SCORE.SYSTEM.VDW>
-4.71315

>  <SCORE.SYSTEM.norm>
-1.48227

>  <SCORE.heavy>
12

>  <SCORE.norm>
-3.5739

$$$$
P81864887
 OpenBabel12072022113D
libRbt.so/2013.1/901 2013/11/27
 14 14  0  0  0  0  0  0  0  0999 V2000
  -27.4576   11.9735  -18.2508 C   0  0  0  0  0  0  0  0  0  0  0  0
  -28.1100   13.3050  -17.8902 C   0  0  0  0  0  0  0  0  0  0  0  0
  -27.6029   13.9610  -16.5777 C   0  0  0  0  0  0  0  0  0  0  0  0
  -27.5447   12.8777  -15.4798 C   0  0  0  0  0  0  0  0  0  0  0  0
  -26.1797   14.5223  -16.7618 C   0  0  0  0  0  0  0  0  0  0  0  0
  -28.5365   15.0536  -16.1402 C   0  0  0  0  0  0  0  0  0  0  0  0
  -29.0295   15.3174  -14.9469 N   0  0  0  0  0  0  0  0  0  0  0  0
  -29.8094   16.4463  -15.0845 N   0  0  0  0  0  0  0  0  0  0  0  0
  -29.7415   16.7907  -16.3537 C   0  0  0  0  0  0  0  0  0  0  0  0
  -28.9539   15.9483  -17.0922 O   0  0  0  0  0  0  0  0  0  0  0  0
  -30.3824   17.9333  -17.0573 C   0  0  0  0  0  0  0  0  0  0  0  0
  -30.1197   17.9269  -18.5012 N   0  0  0  0  0  0  0  0  0  0  0  0
  -30.0741   18.8932  -18.8264 H   0  0  0  0  0  0  0  0  0  0  0  0
  -30.9127   17.5032  -18.9789 H   0  0  0  0  0  0  0  0  0  0  0  0
  1  2  1  0  0  0  0
  2  3  1  0  0  0  0
  3  4  1  0  0  0  0
  3  5  1  0  0  0  0
  3  6  1  0  0  0  0
  6  7  2  0  0  0  0
  6 10  1  0  0  0  0
  7  8  1  0  0  0  0
  8  9  2  0  0  0  0
  9 10  1  0  0  0  0
  9 11  1  0  0  0  0
 11 12  1  0  0  0  0
 12 13  1  0  0  0  0
 12 14  1  0  0  0  0
M  END
>  <CHROM.0>
-56.10648817,-179.28089077,-45.57709797,-42.91612791,-55.97568392,59.74492360
-64.53044436,59.61400285,-168.33501945

>  <CHROM.1>
-45.88264397,134.45188255,-176.67902215,-147.34528185,-28.62004131,15.17590004
-16.72371679,-0.00941619,1.02188955,-1.56033918

>  <Name>
P81864887

>  <RI>
0

>  <Rbt.Current_Directory>
/home/fstefaniak/projects/zuza/docking/adenine/4TZX

>  <Rbt.Executable>
rbdock ($Id: //depot/dev/client3/rdock/2013.1/src/exe/rbdock.cxx#4 $)

>  <Rbt.Library>
libRbt.so (2013.1, Build901 2013/11/27)

>  <Rbt.Parameter_File>
/home/fstefaniak/progs/rDock//data/scripts/dock_solv.prm

>  <Rbt.Receptor>
4tzx.prm

>  <SCORE>
-41.7369

>  <SCORE.INTER>
-26.8656

>  <SCORE.INTER.CONST>
1

>  <SCORE.INTER.POLAR>
-3.66199

>  <SCORE.INTER.ROT>
4

>  <SCORE.INTER.SOLV>
11.0047

>  <SCORE.INTER.VDW>
-15.6386

>  <SCORE.INTER.norm>
-2.2388

>  <SCORE.INTRA>
3.67944

>  <SCORE.INTRA.DIHEDRAL>
2.18712

>  <SCORE.INTRA.DIHEDRAL.0>
2.13972

>  <SCORE.INTRA.POLAR>
0

>  <SCORE.INTRA.POLAR.0>
0

>  <SCORE.INTRA.REPUL>
0

>  <SCORE.INTRA.REPUL.0>
0

>  <SCORE.INTRA.SOLV>
-0.0991873

>  <SCORE.INTRA.SOLV.lig_0>
-8.61313

>  <SCORE.INTRA.VDW>
2.63547

>  <SCORE.INTRA.VDW.0>
0.972323

>  <SCORE.INTRA.norm>
0.30662

>  <SCORE.RESTR>
0

>  <SCORE.RESTR.CAVITY>
0

>  <SCORE.RESTR.norm>
0

>  <SCORE.SYSTEM>
-18.5508

>  <SCORE.SYSTEM.CONST>
0

>  <SCORE.SYSTEM.DIHEDRAL>
5.17619

>  <SCORE.SYSTEM.POLAR>
-3.21065

>  <SCORE.SYSTEM.SOLV>
-0.102506

>  <SCORE.SYSTEM.VDW>
-3.35626

>  <SCORE.SYSTEM.norm>
-1.5459

>  <SCORE.heavy>
12

>  <SCORE.norm>
-3.47807

$$$$
P81941650
 OpenBabel12072022113D
libRbt.so/2013.1/901 2013/11/27
 14 14  0  0  0  0  0  0  0  0999 V2000
  -30.8651   19.7446  -18.1537 C   0  0  0  0  0  0  0  0  0  0  0  0
  -30.3648   18.3076  -18.2353 C   0  0  0  0  0  0  0  0  0  0  0  0
  -29.9039   17.7527  -16.8789 C   0  0  1  0  0  0  0  0  0  0  0  0
  -30.8816   18.0720  -15.8116 C   0  0  0  0  0  0  0  0  0  0  0  0
  -31.6780   18.3081  -14.9996 N   0  0  0  0  0  0  0  0  0  0  0  0
  -29.7335   16.3066  -16.9846 N   0  0  0  0  0  0  0  0  0  0  0  0
  -29.6503   15.5305  -15.8675 C   0  0  0  0  0  0  0  0  0  0  0  0
  -30.2288   15.7892  -14.8182 O   0  0  0  0  0  0  0  0  0  0  0  0
  -28.8461   14.4327  -15.9668 N   0  0  0  0  0  0  0  0  0  0  0  0
  -28.1743   13.9359  -17.1210 C   0  0  0  0  0  0  0  0  0  0  0  0
  -26.6844   13.7355  -17.1381 C   0  0  0  0  0  0  0  0  0  0  0  0
  -27.5977   12.5461  -17.1148 C   0  0  0  0  0  0  0  0  0  0  0  0
  -30.0850   15.8543  -17.8148 H   0  0  0  0  0  0  0  0  0  0  0  0
  -28.8187   13.8830  -15.1150 H   0  0  0  0  0  0  0  0  0  0  0  0
  1  2  1  0  0  0  0
  3  2  1  6  0  0  0
  3  4  1  0  0  0  0
  3  6  1  0  0  0  0
  4  5  3  0  0  0  0
  6  7  1  0  0  0  0
  6 13  1  0  0  0  0
  7  8  2  0  0  0  0
  7  9  1  0  0  0  0
  9 10  1  0  0  0  0
  9 14  1  0  0  0  0
 10 11  1  0  0  0  0
 10 12  1  0  0  0  0
 11 12  1  0  0  0  0
M  END
>  <CHROM.0>
-58.04526634,175.83085506,-66.90585227,-43.72384942,-58.68957242,-51.38762714
-63.61406355,-59.55789828,-168.74672186

>  <CHROM.1>
45.70471496,-163.89035676,31.71947772,123.42424506,-29.55417258,16.19536851
-16.59124131,-2.54439454,-0.88576370,2.28226182

>  <Name>
P81941650

>  <RI>
0

>  <Rbt.Current_Directory>
/home/fstefaniak/projects/zuza/docking/adenine/4TZX

>  <Rbt.Executable>
rbdock ($Id: //depot/dev/client3/rdock/2013.1/src/exe/rbdock.cxx#4 $)

>  <Rbt.Library>
libRbt.so (2013.1, Build901 2013/11/27)

>  <Rbt.Parameter_File>
/home/fstefaniak/progs/rDock//data/scripts/dock_solv.prm

>  <Rbt.Receptor>
4tzx.prm

>  <SCORE>
-48.9891

>  <SCORE.INTER>
-31.0866

>  <SCORE.INTER.CONST>
1

>  <SCORE.INTER.POLAR>
-3.64516

>  <SCORE.INTER.ROT>
4

>  <SCORE.INTER.SOLV>
14.0623

>  <SCORE.INTER.VDW>
-19.528

>  <SCORE.INTER.norm>
-2.59055

>  <SCORE.INTRA>
2.77508

>  <SCORE.INTRA.DIHEDRAL>
1.1094

>  <SCORE.INTRA.DIHEDRAL.0>
2.58334

>  <SCORE.INTRA.POLAR>
0

>  <SCORE.INTRA.POLAR.0>
0

>  <SCORE.INTRA.REPUL>
0

>  <SCORE.INTRA.REPUL.0>
0

>  <SCORE.INTRA.SOLV>
0.389341

>  <SCORE.INTRA.SOLV.lig_0>
-16.0609

>  <SCORE.INTRA.VDW>
2.02571

>  <SCORE.INTRA.VDW.0>
-0.714897

>  <SCORE.INTRA.norm>
0.231256

>  <SCORE.RESTR>
0

>  <SCORE.RESTR.CAVITY>
0

>  <SCORE.RESTR.norm>
0

>  <SCORE.SYSTEM>
-20.6775

>  <SCORE.SYSTEM.CONST>
0

>  <SCORE.SYSTEM.DIHEDRAL>
4.59491

>  <SCORE.SYSTEM.POLAR>
-3.08813

>  <SCORE.SYSTEM.SOLV>
0.191893

>  <SCORE.SYSTEM.VDW>
-5.08687

>  <SCORE.SYSTEM.norm>
-1.72313

>  <SCORE.heavy>
12

>  <SCORE.norm>
-4.08243

$$$$
P81941650
 OpenBabel12072022113D
libRbt.so/2013.1/901 2013/11/27
 14 14  0  0  0  0  0  0  0  0999 V2000
  -30.3448   18.5229  -19.2611 C   0  0  0  0  0  0  0  0  0  0  0  0
  -31.0707   18.3587  -17.9314 C   0  0  0  0  0  0  0  0  0  0  0  0
  -30.1150   18.2039  -16.7387 C   0  0  1  0  0  0  0  0  0  0  0  0
  -30.8432   18.3197  -15.4528 C   0  0  0  0  0  0  0  0  0  0  0  0
  -31.4417   18.3831  -14.4592 N   0  0  0  0  0  0  0  0  0  0  0  0
  -29.4496   16.9071  -16.8216 N   0  0  0  0  0  0  0  0  0  0  0  0
  -29.6025   15.9803  -15.8343 C   0  0  0  0  0  0  0  0  0  0  0  0
  -30.5275   15.9933  -15.0301 O   0  0  0  0  0  0  0  0  0  0  0  0
  -28.6323   15.0234  -15.7640 N   0  0  0  0  0  0  0  0  0  0  0  0
  -27.5451   14.8057  -16.6589 C   0  0  0  0  0  0  0  0  0  0  0  0
  -26.1850   15.3921  -16.4008 C   0  0  0  0  0  0  0  0  0  0  0  0
  -26.4024   13.9159  -16.2506 C   0  0  0  0  0  0  0  0  0  0  0  0
  -29.2405   16.5473  -17.7404 H   0  0  0  0  0  0  0  0  0  0  0  0
  -28.7897   14.3532  -15.0193 H   0  0  0  0  0  0  0  0  0  0  0  0
  1  2  1  0  0  0  0
  3  2  1  6  0  0  0
  3  4  1  0  0  0  0
  3  6  1  0  0  0  0
  4  5  3  0  0  0  0
  6  7  1  0  0  0  0
  6 13  1  0  0  0  0
  7  8  2  0  0  0  0
  7  9  1  0  0  0  0
  9 10  1  0  0  0  0
  9 14  1  0  0  0  0
 10 11  1  0  0  0  0
 10 12  1  0  0  0  0
 11 12  1  0  0  0  0
M  END
>  <CHROM.0>
-59.20947092,-61.64405969,-63.76812300,-43.35281159,-175.83485229,-60.73907068
-66.66650243,-64.21599351,-169.44104873

>  <CHROM.1>
168.64961188,-118.96574147,19.81539710,94.76067323,-29.34751767,16.62923392
-16.39925703,-2.74847210,-0.67035951,2.01449870

>  <Name>
P81941650

>  <RI>
0

>  <Rbt.Current_Directory>
/home/fstefaniak/projects/zuza/docking/adenine/4TZX

>  <Rbt.Executable>
rbdock ($Id: //depot/dev/client3/rdock/2013.1/src/exe/rbdock.cxx#4 $)

>  <Rbt.Library>
libRbt.so (2013.1, Build901 2013/11/27)

>  <Rbt.Parameter_File>
/home/fstefaniak/progs/rDock//data/scripts/dock_solv.prm

>  <Rbt.Receptor>
4tzx.prm

>  <SCORE>
-48.9597

>  <SCORE.INTER>
-32.3336

>  <SCORE.INTER.CONST>
1

>  <SCORE.INTER.POLAR>
-3.18194

>  <SCORE.INTER.ROT>
4

>  <SCORE.INTER.SOLV>
12.6588

>  <SCORE.INTER.VDW>
-21.4355

>  <SCORE.INTER.norm>
-2.69447

>  <SCORE.INTRA>
4.65047

>  <SCORE.INTRA.DIHEDRAL>
1.18696

>  <SCORE.INTRA.DIHEDRAL.0>
2.58334

>  <SCORE.INTRA.POLAR>
0

>  <SCORE.INTRA.POLAR.0>
0

>  <SCORE.INTRA.REPUL>
0

>  <SCORE.INTRA.REPUL.0>
0

>  <SCORE.INTRA.SOLV>
0.741335

>  <SCORE.INTRA.SOLV.lig_0>
-16.0609

>  <SCORE.INTRA.VDW>
3.68632

>  <SCORE.INTRA.VDW.0>
-0.714897

>  <SCORE.INTRA.norm>
0.387539

>  <SCORE.RESTR>
0

>  <SCORE.RESTR.CAVITY>
0

>  <SCORE.RESTR.norm>
0

>  <SCORE.SYSTEM>
-21.2766

>  <SCORE.SYSTEM.CONST>
0

>  <SCORE.SYSTEM.DIHEDRAL>
4.30644

>  <SCORE.SYSTEM.POLAR>
-3.03912

>  <SCORE.SYSTEM.SOLV>
-0.00103175

>  <SCORE.SYSTEM.VDW>
-5.48915

>  <SCORE.SYSTEM.norm>
-1.77305

>  <SCORE.heavy>
12

>  <SCORE.norm>
-4.07998

$$$$
P81941650
 OpenBabel12072022113D
libRbt.so/2013.1/901 2013/11/27
 14 14  0  0  0  0  0  0  0  0999 V2000
  -30.8237   19.7610  -18.1590 C   0  0  0  0  0  0  0  0  0  0  0  0
  -30.3496   18.3148  -18.2354 C   0  0  0  0  0  0  0  0  0  0  0  0
  -29.9045   17.7546  -16.8759 C   0  0  1  0  0  0  0  0  0  0  0  0
  -30.8978   18.0640  -15.8202 C   0  0  0  0  0  0  0  0  0  0  0  0
  -31.7060   18.2924  -15.0176 N   0  0  0  0  0  0  0  0  0  0  0  0
  -29.7265   16.3098  -16.9870 N   0  0  0  0  0  0  0  0  0  0  0  0
  -29.6770   15.5255  -15.8737 C   0  0  0  0  0  0  0  0  0  0  0  0
  -30.3706   15.7141  -14.8807 O   0  0  0  0  0  0  0  0  0  0  0  0
  -28.7716   14.5052  -15.9069 N   0  0  0  0  0  0  0  0  0  0  0  0
  -27.9546   14.0894  -16.9978 C   0  0  0  0  0  0  0  0  0  0  0  0
  -26.4539   14.1210  -16.9127 C   0  0  0  0  0  0  0  0  0  0  0  0
  -27.1747   12.8059  -16.9060 C   0  0  0  0  0  0  0  0  0  0  0  0
  -30.0497   15.8629  -17.8315 H   0  0  0  0  0  0  0  0  0  0  0  0
  -28.7734   13.9457  -15.0611 H   0  0  0  0  0  0  0  0  0  0  0  0
  1  2  1  0  0  0  0
  3  2  1  6  0  0  0
  3  4  1  0  0  0  0
  3  6  1  0  0  0  0
  4  5  3  0  0  0  0
  6  7  1  0  0  0  0
  6 13  1  0  0  0  0
  7  8  2  0  0  0  0
  7  9  1  0  0  0  0
  9 10  1  0  0  0  0
  9 14  1  0  0  0  0
 10 11  1  0  0  0  0
 10 12  1  0  0  0  0
 11 12  1  0  0  0  0
M  END
>  <CHROM.0>
-57.06512938,175.75576909,-64.86395703,-43.31761695,-58.23493893,-59.41068866
-64.08971373,-173.81136022,-168.92701171

>  <CHROM.1>
47.17655239,-162.79801811,37.78762706,118.73850274,-29.48896993,16.26101003
-16.54897118,-2.50735836,-0.78693835,2.32864213

>  <Name>
P81941650

>  <RI>
0

>  <Rbt.Current_Directory>
/home/fstefaniak/projects/zuza/docking/adenine/4TZX

>  <Rbt.Executable>
rbdock ($Id: //depot/dev/client3/rdock/2013.1/src/exe/rbdock.cxx#4 $)

>  <Rbt.Library>
libRbt.so (2013.1, Build901 2013/11/27)

>  <Rbt.Parameter_File>
/home/fstefaniak/progs/rDock//data/scripts/dock_solv.prm

>  <Rbt.Receptor>
4tzx.prm

>  <SCORE>
-48.954

>  <SCORE.INTER>
-30.6936

>  <SCORE.INTER.CONST>
1

>  <SCORE.INTER.POLAR>
-3.59903

>  <SCORE.INTER.ROT>
4

>  <SCORE.INTER.SOLV>
14.035

>  <SCORE.INTER.VDW>
-19.4106

>  <SCORE.INTER.norm>
-2.5578

>  <SCORE.INTRA>
2.54835

>  <SCORE.INTRA.DIHEDRAL>
1.0075

>  <SCORE.INTRA.DIHEDRAL.0>
2.58334

>  <SCORE.INTRA.POLAR>
0

>  <SCORE.INTRA.POLAR.0>
0

>  <SCORE.INTRA.REPUL>
0

>  <SCORE.INTRA.REPUL.0>
0

>  <SCORE.INTRA.SOLV>
0.401918

>  <SCORE.INTRA.SOLV.lig_0>
-16.0609

>  <SCORE.INTRA.VDW>
1.84365

>  <SCORE.INTRA.VDW.0>
-0.714897

>  <SCORE.INTRA.norm>
0.212363

>  <SCORE.RESTR>
0

>  <SCORE.RESTR.CAVITY>
0

>  <SCORE.RESTR.norm>
0

>  <SCORE.SYSTEM>
-20.8088

>  <SCORE.SYSTEM.CONST>
0

>  <SCORE.SYSTEM.DIHEDRAL>
4.41396

>  <SCORE.SYSTEM.POLAR>
-3.07022

>  <SCORE.SYSTEM.SOLV>
0.0521683

>  <SCORE.SYSTEM.VDW>
-5.12722

>  <SCORE.SYSTEM.norm>
-1.73407

>  <SCORE.heavy>
12

>  <SCORE.norm>
-4.0795

$$$$
P82048427
 OpenBabel12072022113D
libRbt.so/2013.1/901 2013/11/27
 15 15  0  0  0  0  0  0  0  0999 V2000
  -23.8353   12.2834  -14.2880 C   0  0  0  0  0  0  0  0  0  0  0  0
  -24.4357   11.5013  -15.4447 C   0  0  0  0  0  0  0  0  0  0  0  0
  -24.4363   12.3461  -16.6498 N   0  0  0  0  0  0  0  0  0  0  0  0
  -25.5375   13.2067  -16.6761 C   0  0  0  0  0  0  0  0  0  0  0  0
  -26.8440   12.8622  -17.0089 C   0  0  0  0  0  0  0  0  0  0  0  0
  -27.8412   13.8429  -16.8979 C   0  0  0  0  0  0  0  0  0  0  0  0
  -27.5202   15.1292  -16.4797 C   0  0  0  0  0  0  0  0  0  0  0  0
  -26.1938   15.4253  -16.1778 C   0  0  0  0  0  0  0  0  0  0  0  0
  -25.2736   14.4580  -16.2882 N   0  3  0  0  0  0  0  0  0  0  0  0
  -24.2926   14.6233  -16.0909 H   0  0  0  0  0  0  0  0  0  0  0  0
  -25.7637   16.7846  -15.7390 C   0  0  0  0  0  0  0  0  0  0  0  0
  -27.1651   11.4927  -17.5190 C   0  0  0  0  0  0  0  0  0  0  0  0
  -28.3635   11.2726  -17.8489 O   0  0  0  0  0  0  0  0  0  0  0  0
  -26.1877   10.6834  -17.5617 O   0  5  0  0  0  0  0  0  0  0  0  0
  -24.6336   11.6833  -17.4428 H   0  0  0  0  0  0  0  0  0  0  0  0
  1  2  1  0  0  0  0
  2  3  1  0  0  0  0
  3  4  1  0  0  0  0
  3 15  1  0  0  0  0
  4  5  2  0  0  0  0
  4  9  1  0  0  0  0
  5  6  1  0  0  0  0
  5 12  1  0  0  0  0
  6  7  2  0  0  0  0
  7  8  1  0  0  0  0
  8  9  2  0  0  0  0
  8 11  1  0  0  0  0
  9 10  1  0  0  0  0
 12 13  2  0  0  0  0
 12 14  1  0  0  0  0
M  CHG  2   9   1  14  -1
M  END
>  <CHROM.0>
-58.66217318,-60.84426064,-61.40172109,-43.80972776,61.76329336,-58.43594448
-64.41568555,-58.66883500,-168.22674295

>  <CHROM.1>
-82.64342163,-77.33352603,-177.29995372,-26.06808009,13.12497800,-16.50139348
-1.41508155,0.52536913,-2.93992020

>  <Name>
P82048427

>  <RI>
0

>  <Rbt.Current_Directory>
/home/fstefaniak/projects/zuza/docking/adenine/4TZX

>  <Rbt.Executable>
rbdock ($Id: //depot/dev/client3/rdock/2013.1/src/exe/rbdock.cxx#4 $)

>  <Rbt.Library>
libRbt.so (2013.1, Build901 2013/11/27)

>  <Rbt.Parameter_File>
/home/fstefaniak/progs/rDock//data/scripts/dock_solv.prm

>  <Rbt.Receptor>
4tzx.prm

>  <SCORE>
-37.4159

>  <SCORE.INTER>
-19.6371

>  <SCORE.INTER.CONST>
1

>  <SCORE.INTER.POLAR>
-2.70263

>  <SCORE.INTER.ROT>
3

>  <SCORE.INTER.SOLV>
12.963

>  <SCORE.INTER.VDW>
-14.0036

>  <SCORE.INTER.norm>
-1.51055

>  <SCORE.INTRA>
1.20102

>  <SCORE.INTRA.DIHEDRAL>
-0.482703

>  <SCORE.INTRA.DIHEDRAL.0>
1.52899

>  <SCORE.INTRA.POLAR>
0.109372

>  <SCORE.INTRA.POLAR.0>
-0.231075

>  <SCORE.INTRA.REPUL>
0

>  <SCORE.INTRA.REPUL.0>
0

>  <SCORE.INTRA.SOLV>
1.25404

>  <SCORE.INTRA.SOLV.lig_0>
-46.6267

>  <SCORE.INTRA.VDW>
0.44348

>  <SCORE.INTRA.VDW.0>
-0.405026

>  <SCORE.INTRA.norm>
0.0923859

>  <SCORE.RESTR>
1.13411

>  <SCORE.RESTR.CAVITY>
1.13411

>  <SCORE.RESTR.norm>
0.0872395

>  <SCORE.SYSTEM>
-20.1139

>  <SCORE.SYSTEM.CONST>
0

>  <SCORE.SYSTEM.DIHEDRAL>
4.05878

>  <SCORE.SYSTEM.POLAR>
-3.0495

>  <SCORE.SYSTEM.SOLV>
-0.0108759

>  <SCORE.SYSTEM.VDW>
-4.59361

>  <SCORE.SYSTEM.norm>
-1.54723

>  <SCORE.heavy>
13

>  <SCORE.norm>
-2.87815

$$$$
P82048427
 OpenBabel12072022113D
libRbt.so/2013.1/901 2013/11/27
 15 15  0  0  0  0  0  0  0  0999 V2000
  -24.9414   11.3785  -14.5478 C   0  0  0  0  0  0  0  0  0  0  0  0
  -23.9046   12.1216  -15.3744 C   0  0  0  0  0  0  0  0  0  0  0  0
  -24.4335   12.3382  -16.7305 N   0  0  0  0  0  0  0  0  0  0  0  0
  -25.5379   13.1950  -16.7230 C   0  0  0  0  0  0  0  0  0  0  0  0
  -26.8539   12.8444  -17.0084 C   0  0  0  0  0  0  0  0  0  0  0  0
  -27.8501   13.8224  -16.8679 C   0  0  0  0  0  0  0  0  0  0  0  0
  -27.5193   15.1119  -16.4678 C   0  0  0  0  0  0  0  0  0  0  0  0
  -26.1842   15.4140  -16.2138 C   0  0  0  0  0  0  0  0  0  0  0  0
  -25.2651   14.4492  -16.3511 N   0  3  0  0  0  0  0  0  0  0  0  0
  -24.2783   14.6188  -16.1888 H   0  0  0  0  0  0  0  0  0  0  0  0
  -25.7439   16.7771  -15.7973 C   0  0  0  0  0  0  0  0  0  0  0  0
  -27.1878   11.4712  -17.4999 C   0  0  0  0  0  0  0  0  0  0  0  0
  -28.3824   11.2654  -17.8521 O   0  0  0  0  0  0  0  0  0  0  0  0
  -26.2240   10.6446  -17.5059 O   0  5  0  0  0  0  0  0  0  0  0  0
  -24.8520   11.4133  -17.0069 H   0  0  0  0  0  0  0  0  0  0  0  0
  1  2  1  0  0  0  0
  2  3  1  0  0  0  0
  3  4  1  0  0  0  0
  3 15  1  0  0  0  0
  4  5  2  0  0  0  0
  4  9  1  0  0  0  0
  5  6  1  0  0  0  0
  5 12  1  0  0  0  0
  6  7  2  0  0  0  0
  7  8  1  0  0  0  0
  8  9  2  0  0  0  0
  8 11  1  0  0  0  0
  9 10  1  0  0  0  0
 12 13  2  0  0  0  0
 12 14  1  0  0  0  0
M  CHG  2   9   1  14  -1
M  END
>  <CHROM.0>
-53.50168959,-60.19140977,-63.13906040,-42.01470312,-52.67829901,57.38206076
-66.89891555,-55.19778973,-167.58883779

>  <CHROM.1>
65.55823552,-111.39829175,-173.75486805,-26.12467683,13.08331548,-16.52824829
-1.67159499,-0.49699728,0.15431850

>  <Name>
P82048427

>  <RI>
0

>  <Rbt.Current_Directory>
/home/fstefaniak/projects/zuza/docking/adenine/4TZX

>  <Rbt.Executable>
rbdock ($Id: //depot/dev/client3/rdock/2013.1/src/exe/rbdock.cxx#4 $)

>  <Rbt.Library>
libRbt.so (2013.1, Build901 2013/11/27)

>  <Rbt.Parameter_File>
/home/fstefaniak/progs/rDock//data/scripts/dock_solv.prm

>  <Rbt.Receptor>
4tzx.prm

>  <SCORE>
-34.3967

>  <SCORE.INTER>
-18.18

>  <SCORE.INTER.CONST>
1

>  <SCORE.INTER.POLAR>
-2.45976

>  <SCORE.INTER.ROT>
3

>  <SCORE.INTER.SOLV>
12.8838

>  <SCORE.INTER.VDW>
-13.8154

>  <SCORE.INTER.norm>
-1.39846

>  <SCORE.INTRA>
2.35535

>  <SCORE.INTRA.DIHEDRAL>
-0.736087

>  <SCORE.INTRA.DIHEDRAL.0>
1.52899

>  <SCORE.INTRA.POLAR>
-0.0747188

>  <SCORE.INTRA.POLAR.0>
-0.231075

>  <SCORE.INTRA.REPUL>
0

>  <SCORE.INTRA.REPUL.0>
0

>  <SCORE.INTRA.SOLV>
1.22502

>  <SCORE.INTRA.SOLV.lig_0>
-46.6267

>  <SCORE.INTRA.VDW>
2.36493

>  <SCORE.INTRA.VDW.0>
-0.405026

>  <SCORE.INTRA.norm>
0.181181

>  <SCORE.RESTR>
1.17211

>  <SCORE.RESTR.CAVITY>
1.17211

>  <SCORE.RESTR.norm>
0.0901625

>  <SCORE.SYSTEM>
-19.7442

>  <SCORE.SYSTEM.CONST>
0

>  <SCORE.SYSTEM.DIHEDRAL>
5.06527

>  <SCORE.SYSTEM.POLAR>
-3.14584

>  <SCORE.SYSTEM.SOLV>
0.080099

>  <SCORE.SYSTEM.VDW>
-4.39179

>  <SCORE.SYSTEM.norm>
-1.51879

>  <SCORE.heavy>
13

>  <SCORE.norm>
-2.6459

$$$$
P82048427
 OpenBabel12072022113D
libRbt.so/2013.1/901 2013/11/27
 15 15  0  0  0  0  0  0  0  0999 V2000
  -26.2931   14.8535  -16.3555 C   0  0  0  0  0  0  0  0  0  0  0  0
  -27.7360   15.2797  -16.1395 C   0  0  0  0  0  0  0  0  0  0  0  0
  -27.7630   16.6791  -15.6848 N   0  0  0  0  0  0  0  0  0  0  0  0
  -28.9593   17.3122  -16.0341 C   0  0  0  0  0  0  0  0  0  0  0  0
  -29.8790   17.8770  -15.1556 C   0  0  0  0  0  0  0  0  0  0  0  0
  -30.9881   18.5484  -15.6919 C   0  0  0  0  0  0  0  0  0  0  0  0
  -31.1642   18.6292  -17.0684 C   0  0  0  0  0  0  0  0  0  0  0  0
  -30.2237   18.0296  -17.9016 C   0  0  0  0  0  0  0  0  0  0  0  0
  -29.1744   17.4060  -17.3496 N   0  3  0  0  0  0  0  0  0  0  0  0
  -28.4667   16.9442  -17.9105 H   0  0  0  0  0  0  0  0  0  0  0  0
  -30.3483   18.0560  -19.3879 C   0  0  0  0  0  0  0  0  0  0  0  0
  -29.7115   17.7274  -13.6763 C   0  0  0  0  0  0  0  0  0  0  0  0
  -28.5903   17.3158  -13.2672 O   0  0  0  0  0  0  0  0  0  0  0  0
  -30.7289   18.0283  -12.9789 O   0  5  0  0  0  0  0  0  0  0  0  0
  -27.0506   17.1702  -16.2835 H   0  0  0  0  0  0  0  0  0  0  0  0
  1  2  1  0  0  0  0
  2  3  1  0  0  0  0
  3  4  1  0  0  0  0
  3 15  1  0  0  0  0
  4  5  2  0  0  0  0
  4  9  1  0  0  0  0
  5  6  1  0  0  0  0
  5 12  1  0  0  0  0
  6  7  2  0  0  0  0
  7  8  1  0  0  0  0
  8  9  2  0  0  0  0
  8 11  1  0  0  0  0
  9 10  1  0  0  0  0
 12 13  2  0  0  0  0
 12 14  1  0  0  0  0
M  CHG  2   9   1  14  -1
M  END
>  <CHROM.0>
-64.64748726,-58.31892670,-64.29681632,-44.15823121,-53.07442636,-59.04184491
-64.99592727,-176.56225763,-168.73520782

>  <CHROM.1>
153.08826383,120.00138839,13.79806392,-29.29374637,17.32763998,-15.87775109
-1.07406315,0.65871235,-1.59417996

>  <Name>
P82048427

>  <RI>
0

>  <Rbt.Current_Directory>
/home/fstefaniak/projects/zuza/docking/adenine/4TZX

>  <Rbt.Executable>
rbdock ($Id: //depot/dev/client3/rdock/2013.1/src/exe/rbdock.cxx#4 $)

>  <Rbt.Library>
libRbt.so (2013.1, Build901 2013/11/27)

>  <Rbt.Parameter_File>
/home/fstefaniak/progs/rDock//data/scripts/dock_solv.prm

>  <Rbt.Receptor>
4tzx.prm

>  <SCORE>
-33.6056

>  <SCORE.INTER>
-15.683

>  <SCORE.INTER.CONST>
1

>  <SCORE.INTER.POLAR>
-2.9382

>  <SCORE.INTER.ROT>
3

>  <SCORE.INTER.SOLV>
26.6599

>  <SCORE.INTER.VDW>
-15.148

>  <SCORE.INTER.norm>
-1.20639

>  <SCORE.INTRA>
2.9868

>  <SCORE.INTRA.DIHEDRAL>
0.32415

>  <SCORE.INTRA.DIHEDRAL.0>
1.52899

>  <SCORE.INTRA.POLAR>
0.231075

>  <SCORE.INTRA.POLAR.0>
-0.231075

>  <SCORE.INTRA.REPUL>
0

>  <SCORE.INTRA.REPUL.0>
0

>  <SCORE.INTRA.SOLV>
1.41129

>  <SCORE.INTRA.SOLV.lig_0>
-46.6267

>  <SCORE.INTRA.VDW>
1.33342

>  <SCORE.INTRA.VDW.0>
-0.405026

>  <SCORE.INTRA.norm>
0.229754

>  <SCORE.RESTR>
0

>  <SCORE.RESTR.CAVITY>
0

>  <SCORE.RESTR.norm>
0

>  <SCORE.SYSTEM>
-20.9094

>  <SCORE.SYSTEM.CONST>
0

>  <SCORE.SYSTEM.DIHEDRAL>
4.40108

>  <SCORE.SYSTEM.POLAR>
-3.01737

>  <SCORE.SYSTEM.SOLV>
0.0607312

>  <SCORE.SYSTEM.VDW>
-5.36897

>  <SCORE.SYSTEM.norm>
-1.60841

>  <SCORE.heavy>
13

>  <SCORE.norm>
-2.58505

$$$$
P83576915
 OpenBabel12072022113D
libRbt.so/2013.1/901 2013/11/27
 12 12  0  0  0  0  0  0  0  0999 V2000
  -31.5564   17.9995  -16.4615 C   0  0  0  0  0  0  0  0  0  0  0  0
  -30.2712   18.0667  -17.2804 C   0  0  0  0  0  0  0  0  0  0  0  0
  -29.2762   17.1725  -16.5338 C   0  0  1  0  0  0  0  0  0  0  0  0
  -29.7143   17.4222  -15.0976 C   0  0  0  0  0  0  0  0  0  0  0  0
  -28.9491   17.1369  -14.0863 N   0  0  0  0  0  0  0  0  0  0  0  0
  -29.5679   17.4844  -12.8801 O   0  0  0  0  0  0  0  0  0  0  0  0
  -31.0866   18.0493  -15.0129 C   0  0  0  0  0  0  0  0  0  0  0  0
  -29.4943   15.7545  -16.8602 N   0  0  0  0  0  0  0  0  0  0  0  0
  -28.5660   15.0159  -16.0142 O   0  0  0  0  0  0  0  0  0  0  0  0
  -29.3919   18.4421  -12.8235 H   0  0  0  0  0  0  0  0  0  0  0  0
  -29.1193   15.5587  -17.7914 H   0  0  0  0  0  0  0  0  0  0  0  0
  -29.1584   14.6568  -15.3233 H   0  0  0  0  0  0  0  0  0  0  0  0
  1  2  1  0  0  0  0
  1  7  1  0  0  0  0
  2  3  1  0  0  0  0
  3  4  1  0  0  0  0
  3  8  1  6  0  0  0
  4  5  2  0  0  0  0
  4  7  1  0  0  0  0
  5  6  1  0  0  0  0
  6 10  1  0  0  0  0
  8  9  1  0  0  0  0
  8 11  1  0  0  0  0
  9 12  1  0  0  0  0
M  END
>  <CHROM.0>
-57.52388444,-55.44226863,-63.24477095,-43.02118734,-58.92084687,-63.91969556
-66.65950603,-174.94808173,-168.49213336

>  <CHROM.1>
-175.64650407,-81.15525337,104.18938058,-29.80031622,17.07016708,-15.54032532
1.61139690,0.84601084,-1.87544038

>  <Name>
P83576915

>  <RI>
0

>  <Rbt.Current_Directory>
/home/fstefaniak/projects/zuza/docking/adenine/4TZX

>  <Rbt.Executable>
rbdock ($Id: //depot/dev/client3/rdock/2013.1/src/exe/rbdock.cxx#4 $)

>  <Rbt.Library>
libRbt.so (2013.1, Build901 2013/11/27)

>  <Rbt.Parameter_File>
/home/fstefaniak/progs/rDock//data/scripts/dock_solv.prm

>  <Rbt.Receptor>
4tzx.prm

>  <SCORE>
-52.1997

>  <SCORE.INTER>
-30.556

>  <SCORE.INTER.CONST>
1

>  <SCORE.INTER.POLAR>
-4.07172

>  <SCORE.INTER.ROT>
1

>  <SCORE.INTER.SOLV>
10.915

>  <SCORE.INTER.VDW>
-14.7033

>  <SCORE.INTER.norm>
-3.39511

>  <SCORE.INTRA>
-0.703724

>  <SCORE.INTRA.DIHEDRAL>
-1.88416

>  <SCORE.INTRA.DIHEDRAL.0>
2.8629

>  <SCORE.INTRA.POLAR>
0

>  <SCORE.INTRA.POLAR.0>
0

>  <SCORE.INTRA.REPUL>
0

>  <SCORE.INTRA.REPUL.0>
0

>  <SCORE.INTRA.SOLV>
0.174587

>  <SCORE.INTRA.SOLV.lig_0>
-13.7639

>  <SCORE.INTRA.VDW>
0.151063

>  <SCORE.INTRA.VDW.0>
-0.788927

>  <SCORE.INTRA.norm>
-0.0781916

>  <SCORE.RESTR>
0

>  <SCORE.RESTR.CAVITY>
0

>  <SCORE.RESTR.norm>
0

>  <SCORE.SYSTEM>
-20.94

>  <SCORE.SYSTEM.CONST>
0

>  <SCORE.SYSTEM.DIHEDRAL>
4.56684

>  <SCORE.SYSTEM.POLAR>
-3.07071

>  <SCORE.SYSTEM.SOLV>
0.0606346

>  <SCORE.SYSTEM.VDW>
-5.26679

>  <SCORE.SYSTEM.norm>
-2.32667

>  <SCORE.heavy>
9

>  <SCORE.norm>
-5.79997

$$$$
P83576915
 OpenBabel12072022113D
libRbt.so/2013.1/901 2013/11/27
 12 12  0  0  0  0  0  0  0  0999 V2000
  -30.2658   18.5663  -17.4139 C   0  0  0  0  0  0  0  0  0  0  0  0
  -31.7180   18.4037  -16.9761 C   0  0  0  0  0  0  0  0  0  0  0  0
  -31.6551   17.5781  -15.6872 C   0  0  1  0  0  0  0  0  0  0  0  0
  -30.4624   16.6845  -15.9971 C   0  0  0  0  0  0  0  0  0  0  0  0
  -30.2339   15.5893  -15.3354 N   0  0  0  0  0  0  0  0  0  0  0  0
  -29.0978   14.9375  -15.8284 O   0  0  0  0  0  0  0  0  0  0  0  0
  -29.6348   17.2049  -17.1495 C   0  0  0  0  0  0  0  0  0  0  0  0
  -31.3276   18.4286  -14.5321 N   0  0  0  0  0  0  0  0  0  0  0  0
  -30.3848   17.6533  -13.7362 O   0  0  0  0  0  0  0  0  0  0  0  0
  -29.0153   14.1762  -15.2243 H   0  0  0  0  0  0  0  0  0  0  0  0
  -32.1337   18.4737  -13.9041 H   0  0  0  0  0  0  0  0  0  0  0  0
  -29.7976   18.3489  -13.3777 H   0  0  0  0  0  0  0  0  0  0  0  0
  1  2  1  0  0  0  0
  1  7  1  0  0  0  0
  2  3  1  0  0  0  0
  3  4  1  0  0  0  0
  3  8  1  1  0  0  0
  4  5  2  0  0  0  0
  4  7  1  0  0  0  0
  5  6  1  0  0  0  0
  6 10  1  0  0  0  0
  8  9  1  0  0  0  0
  8 11  1  0  0  0  0
  9 12  1  0  0  0  0
M  END
>  <CHROM.0>
-60.26431345,-63.71271065,-68.92752437,-43.97064997,-55.45902344,-66.34186147
-67.75896875,-58.42203371,-169.08647690

>  <CHROM.1>
-138.84671665,177.03905369,145.46220616,-30.49447502,17.19956962,-15.77845493
-2.79481910,-1.01794103,1.84171321

>  <Name>
P83576915

>  <RI>
0

>  <Rbt.Current_Directory>
/home/fstefaniak/projects/zuza/docking/adenine/4TZX

>  <Rbt.Executable>
rbdock ($Id: //depot/dev/client3/rdock/2013.1/src/exe/rbdock.cxx#4 $)

>  <Rbt.Library>
libRbt.so (2013.1, Build901 2013/11/27)

>  <Rbt.Parameter_File>
/home/fstefaniak/progs/rDock//data/scripts/dock_solv.prm

>  <Rbt.Receptor>
4tzx.prm

>  <SCORE>
-51.9654

>  <SCORE.INTER>
-33.8284

>  <SCORE.INTER.CONST>
1

>  <SCORE.INTER.POLAR>
-4.41094

>  <SCORE.INTER.ROT>
1

>  <SCORE.INTER.SOLV>
11.3188

>  <SCORE.INTER.VDW>
-15.8887

>  <SCORE.INTER.norm>
-3.75871

>  <SCORE.INTRA>
3.02091

>  <SCORE.INTRA.DIHEDRAL>
1.68374

>  <SCORE.INTRA.DIHEDRAL.0>
2.8629

>  <SCORE.INTRA.POLAR>
0

>  <SCORE.INTRA.POLAR.0>
0

>  <SCORE.INTRA.REPUL>
0

>  <SCORE.INTRA.REPUL.0>
0

>  <SCORE.INTRA.SOLV>
0.841473

>  <SCORE.INTRA.SOLV.lig_0>
-13.7639

>  <SCORE.INTRA.VDW>
1.7583

>  <SCORE.INTRA.VDW.0>
-0.788927

>  <SCORE.INTRA.norm>
0.335657

>  <SCORE.RESTR>
0

>  <SCORE.RESTR.CAVITY>
0

>  <SCORE.RESTR.norm>
0

>  <SCORE.SYSTEM>
-21.1579

>  <SCORE.SYSTEM.CONST>
0

>  <SCORE.SYSTEM.DIHEDRAL>
4.79261

>  <SCORE.SYSTEM.POLAR>
-3.02918

>  <SCORE.SYSTEM.SOLV>
0.16897

>  <SCORE.SYSTEM.VDW>
-5.66183

>  <SCORE.SYSTEM.norm>
-2.35088

>  <SCORE.heavy>
9

>  <SCORE.norm>
-5.77393

$$$$
P83576915
 OpenBabel12072022113D
libRbt.so/2013.1/901 2013/11/27
 12 12  0  0  0  0  0  0  0  0999 V2000
  -30.2926   18.6244  -17.3703 C   0  0  0  0  0  0  0  0  0  0  0  0
  -31.7367   18.3471  -16.9644 C   0  0  0  0  0  0  0  0  0  0  0  0
  -31.6369   17.5154  -15.6818 C   0  0  1  0  0  0  0  0  0  0  0  0
  -30.3735   16.7186  -15.9746 C   0  0  0  0  0  0  0  0  0  0  0  0
  -30.0754   15.6371  -15.3179 N   0  0  0  0  0  0  0  0  0  0  0  0
  -28.8831   15.0790  -15.7927 O   0  0  0  0  0  0  0  0  0  0  0  0
  -29.5650   17.3123  -17.1048 C   0  0  0  0  0  0  0  0  0  0  0  0
  -31.3987   18.3764  -14.5127 N   0  0  0  0  0  0  0  0  0  0  0  0
  -30.4440   17.6498  -13.6857 O   0  0  0  0  0  0  0  0  0  0  0  0
  -28.8258   14.2473  -15.2864 H   0  0  0  0  0  0  0  0  0  0  0  0
  -32.2282   18.3737  -13.9143 H   0  0  0  0  0  0  0  0  0  0  0  0
  -29.8465   18.3641  -13.3856 H   0  0  0  0  0  0  0  0  0  0  0  0
  1  2  1  0  0  0  0
  1  7  1  0  0  0  0
  2  3  1  0  0  0  0
  3  4  1  0  0  0  0
  3  8  1  1  0  0  0
  4  5  2  0  0  0  0
  4  7  1  0  0  0  0
  5  6  1  0  0  0  0
  6 10  1  0  0  0  0
  8  9  1  0  0  0  0
  8 11  1  0  0  0  0
  9 12  1  0  0  0  0
M  END
>  <CHROM.0>
-61.12142040,-63.55726942,-63.39579676,-43.07971359,-57.16924181,-64.42397471
-66.74859304,-63.19521156,-168.06388214

>  <CHROM.1>
-140.39108835,-174.68985411,139.23894168,-30.45294814,17.22456436,-15.75110640
-2.79160112,-0.93810895,1.85895361

>  <Name>
P83576915

>  <RI>
0

>  <Rbt.Current_Directory>
/home/fstefaniak/projects/zuza/docking/adenine/4TZX

>  <Rbt.Executable>
rbdock ($Id: //depot/dev/client3/rdock/2013.1/src/exe/rbdock.cxx#4 $)

>  <Rbt.Library>
libRbt.so (2013.1, Build901 2013/11/27)

>  <Rbt.Parameter_File>
/home/fstefaniak/progs/rDock//data/scripts/dock_solv.prm

>  <Rbt.Receptor>
4tzx.prm

>  <SCORE>
-51.9305

>  <SCORE.INTER>
-33.6905

>  <SCORE.INTER.CONST>
1

>  <SCORE.INTER.POLAR>
-4.4252

>  <SCORE.INTER.ROT>
1

>  <SCORE.INTER.SOLV>
11.1431

>  <SCORE.INTER.VDW>
-15.6907

>  <SCORE.INTER.norm>
-3.74339

>  <SCORE.INTRA>
2.9023

>  <SCORE.INTRA.DIHEDRAL>
1.7257

>  <SCORE.INTRA.DIHEDRAL.0>
2.8629

>  <SCORE.INTRA.POLAR>
0

>  <SCORE.INTRA.POLAR.0>
0

>  <SCORE.INTRA.REPUL>
0

>  <SCORE.INTRA.REPUL.0>
0

>  <SCORE.INTRA.SOLV>
0.814818

>  <SCORE.INTRA.SOLV.lig_0>
-13.7639

>  <SCORE.INTRA.VDW>
1.63204

>  <SCORE.INTRA.VDW.0>
-0.788927

>  <SCORE.INTRA.norm>
0.322478

>  <SCORE.RESTR>
0

>  <SCORE.RESTR.CAVITY>
0

>  <SCORE.RESTR.norm>
0

>  <SCORE.SYSTEM>
-21.1423

>  <SCORE.SYSTEM.CONST>
0

>  <SCORE.SYSTEM.DIHEDRAL>
4.53106

>  <SCORE.SYSTEM.POLAR>
-3.05188

>  <SCORE.SYSTEM.SOLV>
0.175325

>  <SCORE.SYSTEM.VDW>
-5.49074

>  <SCORE.SYSTEM.norm>
-2.34915

>  <SCORE.heavy>
9

>  <SCORE.norm>
-5.77006

$$$$
P85902119
 OpenBabel12072022113D
libRbt.so/2013.1/901 2013/11/27
 14 14  0  0  0  0  0  0  0  0999 V2000
  -31.1483   18.8728  -18.0205 C   0  0  0  0  0  0  0  0  0  0  0  0
  -31.9584   18.2329  -16.8964 C   0  0  0  0  0  0  0  0  0  0  0  0
  -31.1367   17.4294  -15.8724 C   0  0  1  0  0  0  0  0  0  0  0  0
  -30.0996   16.5309  -16.5510 C   0  0  0  0  0  0  0  0  0  0  0  0
  -29.3398   17.2785  -17.5841 N   0  3  0  0  0  0  0  0  0  0  0  0
  -28.8665   18.0777  -17.0686 H   0  0  0  0  0  0  0  0  0  0  0  0
  -28.5521   16.7370  -17.9452 H   0  0  0  0  0  0  0  0  0  0  0  0
  -30.1501   17.9080  -18.6417 C   0  0  0  0  0  0  0  0  0  0  0  0
  -30.5329   18.2768  -14.7383 C   0  0  2  0  0  0  0  0  0  0  0  0
  -29.4218   17.7088  -13.7997 C   0  0  0  0  0  0  0  0  0  0  0  0
  -28.3491   17.4291  -14.3971 O   0  0  0  0  0  0  0  0  0  0  0  0
  -29.6844   17.7239  -12.5608 O   0  5  0  0  0  0  0  0  0  0  0  0
  -31.6437   18.6562  -13.8789 O   0  0  0  0  0  0  0  0  0  0  0  0
  -31.2077   19.2178  -13.1915 H   0  0  0  0  0  0  0  0  0  0  0  0
  1  2  1  0  0  0  0
  1  8  1  0  0  0  0
  2  3  1  0  0  0  0
  3  4  1  0  0  0  0
  3  9  1  1  0  0  0
  4  5  1  0  0  0  0
  5  6  1  0  0  0  0
  5  7  1  0  0  0  0
  5  8  1  0  0  0  0
  9 10  1  1  0  0  0
  9 13  1  0  0  0  0
 10 11  2  0  0  0  0
 10 12  1  0  0  0  0
 13 14  1  0  0  0  0
M  CHG  2   5   1  12  -1
M  END
>  <CHROM.0>
-59.60746123,-59.17914440,-71.37414496,-43.22584591,-176.46260866,-58.93398757
-169.14079445,-56.98201247,-169.56808294

>  <CHROM.1>
-166.12079031,63.59901350,-178.22195354,-30.28944652,17.83142681,-15.67943798
1.74511367,0.43991154,-1.63718992

>  <Name>
P85902119

>  <RI>
0

>  <Rbt.Current_Directory>
/home/fstefaniak/projects/zuza/docking/adenine/4TZX

>  <Rbt.Executable>
rbdock ($Id: //depot/dev/client3/rdock/2013.1/src/exe/rbdock.cxx#4 $)

>  <Rbt.Library>
libRbt.so (2013.1, Build901 2013/11/27)

>  <Rbt.Parameter_File>
/home/fstefaniak/progs/rDock//data/scripts/dock_solv.prm

>  <Rbt.Receptor>
4tzx.prm

>  <SCORE>
-43.5904

>  <SCORE.INTER>
-19.9112

>  <SCORE.INTER.CONST>
1

>  <SCORE.INTER.POLAR>
-3.40061

>  <SCORE.INTER.ROT>
2

>  <SCORE.INTER.SOLV>
27.3137

>  <SCORE.INTER.VDW>
-15.9767

>  <SCORE.INTER.norm>
-1.81011

>  <SCORE.INTRA>
-3.06501

>  <SCORE.INTRA.DIHEDRAL>
-1.71745

>  <SCORE.INTRA.DIHEDRAL.0>
3.75949

>  <SCORE.INTRA.POLAR>
0.396504

>  <SCORE.INTRA.POLAR.0>
-0.396504

>  <SCORE.INTRA.REPUL>
0

>  <SCORE.INTRA.REPUL.0>
0

>  <SCORE.INTRA.SOLV>
-4.69628

>  <SCORE.INTRA.SOLV.lig_0>
-42.9989

>  <SCORE.INTRA.VDW>
-1.20626

>  <SCORE.INTRA.VDW.0>
0.965926

>  <SCORE.INTRA.norm>
-0.278638

>  <SCORE.RESTR>
0

>  <SCORE.RESTR.CAVITY>
0

>  <SCORE.RESTR.norm>
0

>  <SCORE.SYSTEM>
-20.6141

>  <SCORE.SYSTEM.CONST>
0

>  <SCORE.SYSTEM.DIHEDRAL>
5.07483

>  <SCORE.SYSTEM.POLAR>
-3.02492

>  <SCORE.SYSTEM.SOLV>
-0.0152336

>  <SCORE.SYSTEM.VDW>
-5.34622

>  <SCORE.SYSTEM.norm>
-1.87401

>  <SCORE.heavy>
11

>  <SCORE.norm>
-3.96276

$$$$
P85902119
 OpenBabel12072022113D
libRbt.so/2013.1/901 2013/11/27
 14 14  0  0  0  0  0  0  0  0999 V2000
  -31.2250   18.8772  -18.0259 C   0  0  0  0  0  0  0  0  0  0  0  0
  -32.0384   18.1991  -16.9269 C   0  0  0  0  0  0  0  0  0  0  0  0
  -31.2143   17.4063  -15.8965 C   0  0  1  0  0  0  0  0  0  0  0  0
  -30.1377   16.5475  -16.5650 C   0  0  0  0  0  0  0  0  0  0  0  0
  -29.3796   17.3305  -17.5726 N   0  3  0  0  0  0  0  0  0  0  0  0
  -28.9405   18.1362  -17.0375 H   0  0  0  0  0  0  0  0  0  0  0  0
  -28.5692   16.8171  -17.9244 H   0  0  0  0  0  0  0  0  0  0  0  0
  -30.1865   17.9502  -18.6386 C   0  0  0  0  0  0  0  0  0  0  0  0
  -30.6586   18.2558  -14.7395 C   0  0  2  0  0  0  0  0  0  0  0  0
  -29.5107   17.7300  -13.8209 C   0  0  0  0  0  0  0  0  0  0  0  0
  -28.4584   17.4331  -14.4457 O   0  0  0  0  0  0  0  0  0  0  0  0
  -29.7286   17.7912  -12.5748 O   0  5  0  0  0  0  0  0  0  0  0  0
  -31.7869   18.5410  -13.8665 O   0  0  0  0  0  0  0  0  0  0  0  0
  -32.0299   17.6464  -13.5222 H   0  0  0  0  0  0  0  0  0  0  0  0
  1  2  1  0  0  0  0
  1  8  1  0  0  0  0
  2  3  1  0  0  0  0
  3  4  1  0  0  0  0
  3  9  1  1  0  0  0
  4  5  1  0  0  0  0
  5  6  1  0  0  0  0
  5  7  1  0  0  0  0
  5  8  1  0  0  0  0
  9 10  1  1  0  0  0
  9 13  1  0  0  0  0
 10 11  2  0  0  0  0
 10 12  1  0  0  0  0
 13 14  1  0  0  0  0
M  CHG  2   5   1  12  -1
M  END
>  <CHROM.0>
-63.92221767,47.15147791,-66.38486521,-43.42410030,-58.25218714,-63.47189029
-68.24330280,-65.86299006,-169.11817627

>  <CHROM.1>
-163.64541560,58.25149134,65.49195764,-30.37223953,17.82308787,-15.69301627
1.72795459,0.38691773,-1.61346280

>  <Name>
P85902119

>  <RI>
0

>  <Rbt.Current_Directory>
/home/fstefaniak/projects/zuza/docking/adenine/4TZX

>  <Rbt.Executable>
rbdock ($Id: //depot/dev/client3/rdock/2013.1/src/exe/rbdock.cxx#4 $)

>  <Rbt.Library>
libRbt.so (2013.1, Build901 2013/11/27)

>  <Rbt.Parameter_File>
/home/fstefaniak/progs/rDock//data/scripts/dock_solv.prm

>  <Rbt.Receptor>
4tzx.prm

>  <SCORE>
-42.6775

>  <SCORE.INTER>
-19.7121

>  <SCORE.INTER.CONST>
1

>  <SCORE.INTER.POLAR>
-3.15071

>  <SCORE.INTER.ROT>
2

>  <SCORE.INTER.SOLV>
27.1953

>  <SCORE.INTER.VDW>
-16.6375

>  <SCORE.INTER.norm>
-1.79201

>  <SCORE.INTRA>
-2.69628

>  <SCORE.INTRA.DIHEDRAL>
-1.44678

>  <SCORE.INTRA.DIHEDRAL.0>
3.75949

>  <SCORE.INTRA.POLAR>
0.396504

>  <SCORE.INTRA.POLAR.0>
-0.396504

>  <SCORE.INTRA.REPUL>
0

>  <SCORE.INTRA.REPUL.0>
0

>  <SCORE.INTRA.SOLV>
-4.56292

>  <SCORE.INTRA.SOLV.lig_0>
-42.9989

>  <SCORE.INTRA.VDW>
-1.03955

>  <SCORE.INTRA.VDW.0>
0.965926

>  <SCORE.INTRA.norm>
-0.245117

>  <SCORE.RESTR>
0

>  <SCORE.RESTR.CAVITY>
0

>  <SCORE.RESTR.norm>
0

>  <SCORE.SYSTEM>
-20.2691

>  <SCORE.SYSTEM.CONST>
0

>  <SCORE.SYSTEM.DIHEDRAL>
5.43487

>  <SCORE.SYSTEM.POLAR>
-3.08132

>  <SCORE.SYSTEM.SOLV>
0.263076

>  <SCORE.SYSTEM.VDW>
-5.14096

>  <SCORE.SYSTEM.norm>
-1.84264

>  <SCORE.heavy>
11

>  <SCORE.norm>
-3.87977

$$$$
P85902119
 OpenBabel12072022113D
libRbt.so/2013.1/901 2013/11/27
 14 14  0  0  0  0  0  0  0  0999 V2000
  -31.3708   18.7630  -17.6366 C   0  0  0  0  0  0  0  0  0  0  0  0
  -32.0777   18.0678  -16.4763 C   0  0  0  0  0  0  0  0  0  0  0  0
  -31.1523   17.3237  -15.4968 C   0  0  1  0  0  0  0  0  0  0  0  0
  -30.0896   16.5002  -16.2288 C   0  0  0  0  0  0  0  0  0  0  0  0
  -29.4359   17.2992  -17.2953 N   0  3  0  0  0  0  0  0  0  0  0  0
  -28.9948   18.1295  -16.8010 H   0  0  0  0  0  0  0  0  0  0  0  0
  -28.6310   16.8143  -17.6967 H   0  0  0  0  0  0  0  0  0  0  0  0
  -30.3394   17.8705  -18.3096 C   0  0  0  0  0  0  0  0  0  0  0  0
  -30.5540   18.2112  -14.3908 C   0  0  2  0  0  0  0  0  0  0  0  0
  -29.3277   17.7435  -13.5450 C   0  0  0  0  0  0  0  0  0  0  0  0
  -29.5335   17.7610  -12.3028 O   0  0  0  0  0  0  0  0  0  0  0  0
  -28.3452   17.2880  -14.2018 O   0  5  0  0  0  0  0  0  0  0  0  0
  -31.6317   18.4667  -13.4474 O   0  0  0  0  0  0  0  0  0  0  0  0
  -31.6252   17.6555  -12.8817 H   0  0  0  0  0  0  0  0  0  0  0  0
  1  2  1  0  0  0  0
  1  8  1  0  0  0  0
  2  3  1  0  0  0  0
  3  4  1  0  0  0  0
  3  9  1  1  0  0  0
  4  5  1  0  0  0  0
  5  6  1  0  0  0  0
  5  7  1  0  0  0  0
  5  8  1  0  0  0  0
  9 10  1  1  0  0  0
  9 13  1  0  0  0  0
 10 11  2  0  0  0  0
 10 12  1  0  0  0  0
 13 14  1  0  0  0  0
M  CHG  2   5   1  12  -1
M  END
>  <CHROM.0>
-57.13093258,51.92354895,-69.98869028,-42.66817748,-55.73139981,-57.43102939
-61.80098037,-56.64201434,-168.74239995

>  <CHROM.1>
-163.85290851,-124.61231810,82.55201314,-30.32690705,17.75304997,-15.35300597
1.79373169,0.37982343,-1.64399411

>  <Name>
P85902119

>  <RI>
0

>  <Rbt.Current_Directory>
/home/fstefaniak/projects/zuza/docking/adenine/4TZX

>  <Rbt.Executable>
rbdock ($Id: //depot/dev/client3/rdock/2013.1/src/exe/rbdock.cxx#4 $)

>  <Rbt.Library>
libRbt.so (2013.1, Build901 2013/11/27)

>  <Rbt.Parameter_File>
/home/fstefaniak/progs/rDock//data/scripts/dock_solv.prm

>  <Rbt.Receptor>
4tzx.prm

>  <SCORE>
-42.1268

>  <SCORE.INTER>
-20.7719

>  <SCORE.INTER.CONST>
1

>  <SCORE.INTER.POLAR>
-3.52736

>  <SCORE.INTER.ROT>
2

>  <SCORE.INTER.SOLV>
26.9199

>  <SCORE.INTER.VDW>
-15.9966

>  <SCORE.INTER.norm>
-1.88835

>  <SCORE.INTRA>
-1.23186

>  <SCORE.INTRA.DIHEDRAL>
0.491188

>  <SCORE.INTRA.DIHEDRAL.0>
3.75949

>  <SCORE.INTRA.POLAR>
0.396504

>  <SCORE.INTRA.POLAR.0>
-0.396504

>  <SCORE.INTRA.REPUL>
0

>  <SCORE.INTRA.REPUL.0>
0

>  <SCORE.INTRA.SOLV>
-4.47697

>  <SCORE.INTRA.SOLV.lig_0>
-42.9989

>  <SCORE.INTRA.VDW>
-0.587081

>  <SCORE.INTRA.VDW.0>
0.965926

>  <SCORE.INTRA.norm>
-0.111987

>  <SCORE.RESTR>
0

>  <SCORE.RESTR.CAVITY>
0

>  <SCORE.RESTR.norm>
0

>  <SCORE.SYSTEM>
-20.123

>  <SCORE.SYSTEM.CONST>
0

>  <SCORE.SYSTEM.DIHEDRAL>
4.99875

>  <SCORE.SYSTEM.POLAR>
-3.11217

>  <SCORE.SYSTEM.SOLV>
0.30459

>  <SCORE.SYSTEM.VDW>
-4.80925

>  <SCORE.SYSTEM.norm>
-1.82937

>  <SCORE.heavy>
11

>  <SCORE.norm>
-3.82971

$$$$
P89812344
 OpenBabel12072022113D
libRbt.so/2013.1/901 2013/11/27
 11 10  0  0  0  0  0  0  0  0999 V2000
  -28.0414   14.0609  -16.4144 C   0  0  0  0  0  0  0  0  0  0  0  0
  -27.3931   15.3569  -16.6637 N   0  0  0  0  0  0  0  0  0  0  0  0
  -28.2433   16.4194  -16.1033 C   0  0  0  0  0  0  0  0  0  0  0  0
  -26.0385   15.4500  -16.0877 C   0  0  1  0  0  0  0  0  0  0  0  0
  -25.3186   14.0483  -15.8552 C   0  0  0  0  0  0  0  0  0  0  0  0
  -24.7518   13.5138  -16.8343 O   0  0  0  0  0  0  0  0  0  0  0  0
  -25.5216   13.6603  -14.6542 O   0  5  0  0  0  0  0  0  0  0  0  0
  -25.2232   16.2580  -17.0357 N   0  3  0  0  0  0  0  0  0  0  0  0
  -25.2473   15.8298  -17.9553 H   0  0  0  0  0  0  0  0  0  0  0  0
  -25.4751   17.2424  -17.0074 H   0  0  0  0  0  0  0  0  0  0  0  0
  -24.2783   16.1752  -16.5984 H   0  0  0  0  0  0  0  0  0  0  0  0
  1  2  1  0  0  0  0
  2  3  1  0  0  0  0
  2  4  1  0  0  0  0
  4  5  1  6  0  0  0
  4  8  1  0  0  0  0
  5  6  2  0  0  0  0
  5  7  1  0  0  0  0
  8  9  1  0  0  0  0
  8 10  1  0  0  0  0
  8 11  1  0  0  0  0
M  CHG  2   7  -1   8   1
M  END
>  <CHROM.0>
-55.60604286,61.87626689,-56.25449695,-42.65578071,-54.97055609,-54.36334780
-65.06350219,-56.23159693,-169.38385305

>  <CHROM.1>
23.63247456,82.07748129,-56.40907773,-26.29390685,14.85893894,-16.22341760
2.53356611,0.15400035,-0.43488349

>  <Name>
P89812344

>  <RI>
0

>  <Rbt.Current_Directory>
/home/fstefaniak/projects/zuza/docking/adenine/4TZX

>  <Rbt.Executable>
rbdock ($Id: //depot/dev/client3/rdock/2013.1/src/exe/rbdock.cxx#4 $)

>  <Rbt.Library>
libRbt.so (2013.1, Build901 2013/11/27)

>  <Rbt.Parameter_File>
/home/fstefaniak/progs/rDock//data/scripts/dock_solv.prm

>  <Rbt.Receptor>
4tzx.prm

>  <SCORE>
-45.9025

>  <SCORE.INTER>
-24.5806

>  <SCORE.INTER.CONST>
1

>  <SCORE.INTER.POLAR>
-4.92692

>  <SCORE.INTER.ROT>
2

>  <SCORE.INTER.SOLV>
21.2261

>  <SCORE.INTER.VDW>
-11.9727

>  <SCORE.INTER.norm>
-3.07258

>  <SCORE.INTRA>
-1.45776

>  <SCORE.INTRA.DIHEDRAL>
-1.42107

>  <SCORE.INTRA.DIHEDRAL.0>
4.19239

>  <SCORE.INTRA.POLAR>
0

>  <SCORE.INTRA.POLAR.0>
0

>  <SCORE.INTRA.REPUL>
0

>  <SCORE.INTRA.REPUL.0>
0

>  <SCORE.INTRA.SOLV>
-1.25154

>  <SCORE.INTRA.SOLV.lig_0>
-46.5804

>  <SCORE.INTRA.VDW>
-0.12146

>  <SCORE.INTRA.VDW.0>
1.31245

>  <SCORE.INTRA.norm>
-0.18222

>  <SCORE.RESTR>
0

>  <SCORE.RESTR.CAVITY>
0

>  <SCORE.RESTR.norm>
0

>  <SCORE.SYSTEM>
-19.8641

>  <SCORE.SYSTEM.CONST>
0

>  <SCORE.SYSTEM.DIHEDRAL>
4.57613

>  <SCORE.SYSTEM.POLAR>
-3.13755

>  <SCORE.SYSTEM.SOLV>
0.288661

>  <SCORE.SYSTEM.VDW>
-4.4058

>  <SCORE.SYSTEM.norm>
-2.48301

>  <SCORE.heavy>
8

>  <SCORE.norm>
-5.73781

$$$$
P89812344
 OpenBabel12072022113D
libRbt.so/2013.1/901 2013/11/27
 11 10  0  0  0  0  0  0  0  0999 V2000
  -28.0120   14.0434  -16.4871 C   0  0  0  0  0  0  0  0  0  0  0  0
  -27.3645   15.3473  -16.6937 N   0  0  0  0  0  0  0  0  0  0  0  0
  -28.2319   16.3936  -16.1289 C   0  0  0  0  0  0  0  0  0  0  0  0
  -26.0234   15.4336  -16.0862 C   0  0  1  0  0  0  0  0  0  0  0  0
  -25.3139   14.0285  -15.8421 C   0  0  0  0  0  0  0  0  0  0  0  0
  -24.7817   13.4651  -16.8243 O   0  0  0  0  0  0  0  0  0  0  0  0
  -25.4872   13.6703  -14.6272 O   0  5  0  0  0  0  0  0  0  0  0  0
  -25.1835   16.2420  -17.0121 N   0  3  0  0  0  0  0  0  0  0  0  0
  -25.5630   17.1804  -17.0836 H   0  0  0  0  0  0  0  0  0  0  0  0
  -24.1971   16.1887  -16.7722 H   0  0  0  0  0  0  0  0  0  0  0  0
  -25.3073   15.7091  -17.9018 H   0  0  0  0  0  0  0  0  0  0  0  0
  1  2  1  0  0  0  0
  2  3  1  0  0  0  0
  2  4  1  0  0  0  0
  4  5  1  6  0  0  0
  4  8  1  0  0  0  0
  5  6  2  0  0  0  0
  5  7  1  0  0  0  0
  8  9  1  0  0  0  0
  8 10  1  0  0  0  0
  8 11  1  0  0  0  0
M  CHG  2   7  -1   8   1
M  END
>  <CHROM.0>
-60.95002371,62.37866649,-58.44783931,-43.25423188,-55.79554443,-57.20263181
-62.05123012,-57.98976506,-169.32839786

>  <CHROM.1>
22.47818624,78.72762263,62.85081256,-26.27845225,14.83989650,-16.23188402
2.51663133,0.12836017,-0.42730535

>  <Name>
P89812344

>  <RI>
0

>  <Rbt.Current_Directory>
/home/fstefaniak/projects/zuza/docking/adenine/4TZX

>  <Rbt.Executable>
rbdock ($Id: //depot/dev/client3/rdock/2013.1/src/exe/rbdock.cxx#4 $)

>  <Rbt.Library>
libRbt.so (2013.1, Build901 2013/11/27)

>  <Rbt.Parameter_File>
/home/fstefaniak/progs/rDock//data/scripts/dock_solv.prm

>  <Rbt.Receptor>
4tzx.prm

>  <SCORE>
-45.1904

>  <SCORE.INTER>
-23.7994

>  <SCORE.INTER.CONST>
1

>  <SCORE.INTER.POLAR>
-4.83778

>  <SCORE.INTER.ROT>
2

>  <SCORE.INTER.SOLV>
21.3032

>  <SCORE.INTER.VDW>
-11.7747

>  <SCORE.INTER.norm>
-2.97493

>  <SCORE.INTRA>
-1.42174

>  <SCORE.INTRA.DIHEDRAL>
-1.37597

>  <SCORE.INTRA.DIHEDRAL.0>
4.19239

>  <SCORE.INTRA.POLAR>
0

>  <SCORE.INTRA.POLAR.0>
0

>  <SCORE.INTRA.REPUL>
0

>  <SCORE.INTRA.REPUL.0>
0

>  <SCORE.INTRA.SOLV>
-1.08124

>  <SCORE.INTRA.SOLV.lig_0>
-46.5804

>  <SCORE.INTRA.VDW>
-0.193141

>  <SCORE.INTRA.VDW.0>
1.31245

>  <SCORE.INTRA.norm>
-0.177718

>  <SCORE.RESTR>
0

>  <SCORE.RESTR.CAVITY>
0

>  <SCORE.RESTR.norm>
0

>  <SCORE.SYSTEM>
-19.9693

>  <SCORE.SYSTEM.CONST>
0

>  <SCORE.SYSTEM.DIHEDRAL>
4.08369

>  <SCORE.SYSTEM.POLAR>
-3.06069

>  <SCORE.SYSTEM.SOLV>
0.273261

>  <SCORE.SYSTEM.VDW>
-4.56285

>  <SCORE.SYSTEM.norm>
-2.49616

>  <SCORE.heavy>
8

>  <SCORE.norm>
-5.6488

$$$$
P89812344
 OpenBabel12072022113D
libRbt.so/2013.1/901 2013/11/27
 11 10  0  0  0  0  0  0  0  0999 V2000
  -28.0492   14.0727  -16.4132 C   0  0  0  0  0  0  0  0  0  0  0  0
  -27.3988   15.3673  -16.6645 N   0  0  0  0  0  0  0  0  0  0  0  0
  -28.2474   16.4320  -16.1057 C   0  0  0  0  0  0  0  0  0  0  0  0
  -26.0441   15.4592  -16.0885 C   0  0  1  0  0  0  0  0  0  0  0  0
  -25.3234   14.0571  -15.8608 C   0  0  0  0  0  0  0  0  0  0  0  0
  -24.7890   13.5082  -16.8501 O   0  0  0  0  0  0  0  0  0  0  0  0
  -25.4913   13.6847  -14.6495 O   0  5  0  0  0  0  0  0  0  0  0  0
  -25.2295   16.2708  -17.0340 N   0  3  0  0  0  0  0  0  0  0  0  0
  -25.2520   15.8445  -17.9546 H   0  0  0  0  0  0  0  0  0  0  0  0
  -25.4833   17.2547  -17.0039 H   0  0  0  0  0  0  0  0  0  0  0  0
  -24.2848   16.1889  -16.5961 H   0  0  0  0  0  0  0  0  0  0  0  0
  1  2  1  0  0  0  0
  2  3  1  0  0  0  0
  2  4  1  0  0  0  0
  4  5  1  6  0  0  0
  4  8  1  0  0  0  0
  5  6  2  0  0  0  0
  5  7  1  0  0  0  0
  8  9  1  0  0  0  0
  8 10  1  0  0  0  0
  8 11  1  0  0  0  0
M  CHG  2   7  -1   8   1
M  END
>  <CHROM.0>
-61.66399912,60.61935223,-71.12638066,-42.58487754,-56.96014444,-57.92713762
-172.77679786,58.32610469,-169.11280023

>  <CHROM.1>
23.93463342,80.11135161,-56.52934476,-26.29905036,14.86961783,-16.22559214
2.52847580,0.14910664,-0.42941421

>  <Name>
P89812344

>  <RI>
0

>  <Rbt.Current_Directory>
/home/fstefaniak/projects/zuza/docking/adenine/4TZX

>  <Rbt.Executable>
rbdock ($Id: //depot/dev/client3/rdock/2013.1/src/exe/rbdock.cxx#4 $)

>  <Rbt.Library>
libRbt.so (2013.1, Build901 2013/11/27)

>  <Rbt.Parameter_File>
/home/fstefaniak/progs/rDock//data/scripts/dock_solv.prm

>  <Rbt.Receptor>
4tzx.prm

>  <SCORE>
-44.8818

>  <SCORE.INTER>
-24.6086

>  <SCORE.INTER.CONST>
1

>  <SCORE.INTER.POLAR>
-4.92627

>  <SCORE.INTER.ROT>
2

>  <SCORE.INTER.SOLV>
21.2663

>  <SCORE.INTER.VDW>
-12.007

>  <SCORE.INTER.norm>
-3.07608

>  <SCORE.INTRA>
-1.52585

>  <SCORE.INTRA.DIHEDRAL>
-1.44289

>  <SCORE.INTRA.DIHEDRAL.0>
4.19239

>  <SCORE.INTRA.POLAR>
0

>  <SCORE.INTRA.POLAR.0>
0

>  <SCORE.INTRA.REPUL>
0

>  <SCORE.INTRA.REPUL.0>
0

>  <SCORE.INTRA.SOLV>
-1.2704

>  <SCORE.INTRA.SOLV.lig_0>
-46.5804

>  <SCORE.INTRA.VDW>
-0.169204

>  <SCORE.INTRA.VDW.0>
1.31245

>  <SCORE.INTRA.norm>
-0.190731

>  <SCORE.RESTR>
0

>  <SCORE.RESTR.CAVITY>
0

>  <SCORE.RESTR.norm>
0

>  <SCORE.SYSTEM>
-18.7473

>  <SCORE.SYSTEM.CONST>
0

>  <SCORE.SYSTEM.DIHEDRAL>
4.87757

>  <SCORE.SYSTEM.POLAR>
-3.04112

>  <SCORE.SYSTEM.SOLV>
0.0533806

>  <SCORE.SYSTEM.VDW>
-4.00477

>  <SCORE.SYSTEM.norm>
-2.34341

>  <SCORE.heavy>
8

>  <SCORE.norm>
-5.61022

$$$$
P89999547
 OpenBabel12072022113D
libRbt.so/2013.1/901 2013/11/27
 13 13  0  0  0  0  0  0  0  0999 V2000
  -30.0063   17.6614  -19.0021 C   0  0  0  0  0  0  0  0  0  0  0  0
  -29.7375   17.3331  -17.5377 C   0  0  0  0  0  0  0  0  0  0  0  0
  -30.8479   18.0944  -16.8295 C   0  0  2  0  0  0  0  0  0  0  0  0
  -30.8329   19.3889  -17.6064 N   0  3  0  0  0  0  0  0  0  0  0  0
  -31.7562   19.8372  -17.3832 H   0  0  0  0  0  0  0  0  0  0  0  0
  -30.1499   19.9894  -17.1162 H   0  0  0  0  0  0  0  0  0  0  0  0
  -30.4703   19.1140  -19.0038 C   0  0  0  0  0  0  0  0  0  0  0  0
  -30.6204   18.4216  -15.3655 C   0  0  2  0  0  0  0  0  0  0  0  0
  -29.8343   17.2255  -14.7593 C   0  0  0  0  0  0  0  0  0  0  0  0
  -28.6018   17.4498  -14.5510 O   0  0  0  0  0  0  0  0  0  0  0  0
  -30.5045   16.1666  -14.6675 O   0  5  0  0  0  0  0  0  0  0  0  0
  -31.9009   18.5345  -14.6930 O   0  0  0  0  0  0  0  0  0  0  0  0
  -31.6514   18.7385  -13.7629 H   0  0  0  0  0  0  0  0  0  0  0  0
  1  2  1  0  0  0  0
  1  7  1  0  0  0  0
  2  3  1  0  0  0  0
  3  4  1  0  0  0  0
  3  8  1  1  0  0  0
  4  5  1  0  0  0  0
  4  6  1  0  0  0  0
  4  7  1  0  0  0  0
  8  9  1  1  0  0  0
  8 12  1  0  0  0  0
  9 10  2  0  0  0  0
  9 11  1  0  0  0  0
 12 13  1  0  0  0  0
M  CHG  2   4   1  11  -1
M  END
>  <CHROM.0>
-53.91040189,-65.69194580,-61.34518160,-42.53886987,-179.88063748,-65.98777806
-64.53142117,-59.12119146,-168.47128444

>  <CHROM.1>
104.78039230,179.60995059,-35.12002580,-30.35476387,17.95457629,-16.34995278
-1.64049145,-0.74240076,1.83376512

>  <Name>
P89999547

>  <RI>
0

>  <Rbt.Current_Directory>
/home/fstefaniak/projects/zuza/docking/adenine/4TZX

>  <Rbt.Executable>
rbdock ($Id: //depot/dev/client3/rdock/2013.1/src/exe/rbdock.cxx#4 $)

>  <Rbt.Library>
libRbt.so (2013.1, Build901 2013/11/27)

>  <Rbt.Parameter_File>
/home/fstefaniak/progs/rDock//data/scripts/dock_solv.prm

>  <Rbt.Receptor>
4tzx.prm

>  <SCORE>
-49.4116

>  <SCORE.INTER>
-28.1717

>  <SCORE.INTER.CONST>
1

>  <SCORE.INTER.POLAR>
-5.10652

>  <SCORE.INTER.ROT>
2

>  <SCORE.INTER.SOLV>
27.2254

>  <SCORE.INTER.VDW>
-15.7679

>  <SCORE.INTER.norm>
-2.81717

>  <SCORE.INTRA>
-0.150708

>  <SCORE.INTRA.DIHEDRAL>
0.300822

>  <SCORE.INTRA.DIHEDRAL.0>
2.37592

>  <SCORE.INTRA.POLAR>
0.835335

>  <SCORE.INTRA.POLAR.0>
-0.835335

>  <SCORE.INTRA.REPUL>
0

>  <SCORE.INTRA.REPUL.0>
0

>  <SCORE.INTRA.SOLV>
-5.57716

>  <SCORE.INTRA.SOLV.lig_0>
-43.0873

>  <SCORE.INTRA.VDW>
-0.352678

>  <SCORE.INTRA.VDW.0>
0.677508

>  <SCORE.INTRA.norm>
-0.0150708

>  <SCORE.RESTR>
0

>  <SCORE.RESTR.CAVITY>
0

>  <SCORE.RESTR.norm>
0

>  <SCORE.SYSTEM>
-21.0892

>  <SCORE.SYSTEM.CONST>
0

>  <SCORE.SYSTEM.DIHEDRAL>
4.66321

>  <SCORE.SYSTEM.POLAR>
-3.10915

>  <SCORE.SYSTEM.SOLV>
0.0128673

>  <SCORE.SYSTEM.VDW>
-5.25434

>  <SCORE.SYSTEM.norm>
-2.10892

>  <SCORE.heavy>
10

>  <SCORE.norm>
-4.94116

$$$$
P89999547
 OpenBabel12072022113D
libRbt.so/2013.1/901 2013/11/27
 13 13  0  0  0  0  0  0  0  0999 V2000
  -30.0420   17.6923  -19.0417 C   0  0  0  0  0  0  0  0  0  0  0  0
  -29.7678   17.3383  -17.5843 C   0  0  0  0  0  0  0  0  0  0  0  0
  -30.8622   18.1044  -16.8569 C   0  0  2  0  0  0  0  0  0  0  0  0
  -30.8342   19.4101  -17.6144 N   0  3  0  0  0  0  0  0  0  0  0  0
  -31.7494   19.8681  -17.3779 H   0  0  0  0  0  0  0  0  0  0  0  0
  -30.1392   19.9934  -17.1202 H   0  0  0  0  0  0  0  0  0  0  0  0
  -30.4853   19.1512  -19.0183 C   0  0  0  0  0  0  0  0  0  0  0  0
  -30.6198   18.4063  -15.3898 C   0  0  2  0  0  0  0  0  0  0  0  0
  -29.8527   17.1872  -14.8056 C   0  0  0  0  0  0  0  0  0  0  0  0
  -28.6058   17.3692  -14.6475 O   0  0  0  0  0  0  0  0  0  0  0  0
  -30.5554   16.1531  -14.6795 O   0  5  0  0  0  0  0  0  0  0  0  0
  -31.8939   18.5335  -14.7078 O   0  0  0  0  0  0  0  0  0  0  0  0
  -31.6350   18.7193  -13.7764 H   0  0  0  0  0  0  0  0  0  0  0  0
  1  2  1  0  0  0  0
  1  7  1  0  0  0  0
  2  3  1  0  0  0  0
  3  4  1  0  0  0  0
  3  8  1  1  0  0  0
  4  5  1  0  0  0  0
  4  6  1  0  0  0  0
  4  7  1  0  0  0  0
  8  9  1  1  0  0  0
  8 12  1  0  0  0  0
  9 10  2  0  0  0  0
  9 11  1  0  0  0  0
 12 13  1  0  0  0  0
M  CHG  2   4   1  11  -1
M  END
>  <CHROM.0>
-58.34821182,-65.79945038,-70.01764158,-42.64173946,-52.43904729,-62.75611007
-63.79461643,-60.07129208,-168.94104703

>  <CHROM.1>
102.33231327,179.59737378,-35.39090932,-30.37049646,17.94969574,-16.38261693
-1.63776680,-0.75227133,1.85280992

>  <Name>
P89999547

>  <RI>
0

>  <Rbt.Current_Directory>
/home/fstefaniak/projects/zuza/docking/adenine/4TZX

>  <Rbt.Executable>
rbdock ($Id: //depot/dev/client3/rdock/2013.1/src/exe/rbdock.cxx#4 $)

>  <Rbt.Library>
libRbt.so (2013.1, Build901 2013/11/27)

>  <Rbt.Parameter_File>
/home/fstefaniak/progs/rDock//data/scripts/dock_solv.prm

>  <Rbt.Receptor>
4tzx.prm

>  <SCORE>
-49.3494

>  <SCORE.INTER>
-28.1701

>  <SCORE.INTER.CONST>
1

>  <SCORE.INTER.POLAR>
-5.09465

>  <SCORE.INTER.ROT>
2

>  <SCORE.INTER.SOLV>
27.3056

>  <SCORE.INTER.VDW>
-15.8331

>  <SCORE.INTER.norm>
-2.81701

>  <SCORE.INTRA>
-0.18595

>  <SCORE.INTRA.DIHEDRAL>
0.262274

>  <SCORE.INTRA.DIHEDRAL.0>
2.37592

>  <SCORE.INTRA.POLAR>
0.835335

>  <SCORE.INTRA.POLAR.0>
-0.835335

>  <SCORE.INTRA.REPUL>
0

>  <SCORE.INTRA.REPUL.0>
0

>  <SCORE.INTRA.SOLV>
-5.56646

>  <SCORE.INTRA.SOLV.lig_0>
-43.0873

>  <SCORE.INTRA.VDW>
-0.373995

>  <SCORE.INTRA.VDW.0>
0.677508

>  <SCORE.INTRA.norm>
-0.018595

>  <SCORE.RESTR>
0

>  <SCORE.RESTR.CAVITY>
0

>  <SCORE.RESTR.norm>
0

>  <SCORE.SYSTEM>
-20.9934

>  <SCORE.SYSTEM.CONST>
0

>  <SCORE.SYSTEM.DIHEDRAL>
4.98978

>  <SCORE.SYSTEM.POLAR>
-3.07271

>  <SCORE.SYSTEM.SOLV>
0.190356

>  <SCORE.SYSTEM.VDW>
-5.47997

>  <SCORE.SYSTEM.norm>
-2.09934

>  <SCORE.heavy>
10

>  <SCORE.norm>
-4.93494

$$$$
P89999547
 OpenBabel12072022113D
libRbt.so/2013.1/901 2013/11/27
 13 13  0  0  0  0  0  0  0  0999 V2000
  -30.0614   17.7415  -19.0583 C   0  0  0  0  0  0  0  0  0  0  0  0
  -29.7763   17.3650  -17.6087 C   0  0  0  0  0  0  0  0  0  0  0  0
  -30.8713   18.1117  -16.8622 C   0  0  2  0  0  0  0  0  0  0  0  0
  -30.8562   19.4300  -17.5980 N   0  3  0  0  0  0  0  0  0  0  0  0
  -31.7730   19.8779  -17.3485 H   0  0  0  0  0  0  0  0  0  0  0  0
  -30.1622   20.0096  -17.0981 H   0  0  0  0  0  0  0  0  0  0  0  0
  -30.5139   19.1969  -19.0080 C   0  0  0  0  0  0  0  0  0  0  0  0
  -30.6223   18.3906  -15.3918 C   0  0  2  0  0  0  0  0  0  0  0  0
  -29.8612   17.1582  -14.8279 C   0  0  0  0  0  0  0  0  0  0  0  0
  -30.5770   16.1231  -14.6577 O   0  0  0  0  0  0  0  0  0  0  0  0
  -28.6683   17.3943  -14.5114 O   0  5  0  0  0  0  0  0  0  0  0  0
  -31.8933   18.5161  -14.7038 O   0  0  0  0  0  0  0  0  0  0  0  0
  -32.3220   17.6435  -14.8584 H   0  0  0  0  0  0  0  0  0  0  0  0
  1  2  1  0  0  0  0
  1  7  1  0  0  0  0
  2  3  1  0  0  0  0
  3  4  1  0  0  0  0
  3  8  1  1  0  0  0
  4  5  1  0  0  0  0
  4  6  1  0  0  0  0
  4  7  1  0  0  0  0
  8  9  1  1  0  0  0
  8 12  1  0  0  0  0
  9 10  2  0  0  0  0
  9 11  1  0  0  0  0
 12 13  1  0  0  0  0
M  CHG  2   4   1  11  -1
M  END
>  <CHROM.0>
-60.24407373,-65.34174643,-66.62464346,-42.45321527,-177.40386992,-60.46658395
-68.25698089,-59.08122095,-168.48118605

>  <CHROM.1>
-74.50998665,59.70315020,-36.15771913,-30.39412200,17.95045521,-16.37580692
-1.64547042,-0.74143234,1.86537486

>  <Name>
P89999547

>  <RI>
0

>  <Rbt.Current_Directory>
/home/fstefaniak/projects/zuza/docking/adenine/4TZX

>  <Rbt.Executable>
rbdock ($Id: //depot/dev/client3/rdock/2013.1/src/exe/rbdock.cxx#4 $)

>  <Rbt.Library>
libRbt.so (2013.1, Build901 2013/11/27)

>  <Rbt.Parameter_File>
/home/fstefaniak/progs/rDock//data/scripts/dock_solv.prm

>  <Rbt.Receptor>
4tzx.prm

>  <SCORE>
-49.2104

>  <SCORE.INTER>
-27.7418

>  <SCORE.INTER.CONST>
1

>  <SCORE.INTER.POLAR>
-5.00472

>  <SCORE.INTER.ROT>
2

>  <SCORE.INTER.SOLV>
27.6185

>  <SCORE.INTER.VDW>
-15.9516

>  <SCORE.INTER.norm>
-2.77418

>  <SCORE.INTRA>
-0.162196

>  <SCORE.INTRA.DIHEDRAL>
0.267613

>  <SCORE.INTRA.DIHEDRAL.0>
2.37592

>  <SCORE.INTRA.POLAR>
0.835335

>  <SCORE.INTRA.POLAR.0>
-0.835335

>  <SCORE.INTRA.REPUL>
0

>  <SCORE.INTRA.REPUL.0>
0

>  <SCORE.INTRA.SOLV>
-5.77522

>  <SCORE.INTRA.SOLV.lig_0>
-43.0873

>  <SCORE.INTRA.VDW>
-0.248534

>  <SCORE.INTRA.VDW.0>
0.677508

>  <SCORE.INTRA.norm>
-0.0162196

>  <SCORE.RESTR>
0

>  <SCORE.RESTR.CAVITY>
0

>  <SCORE.RESTR.norm>
0

>  <SCORE.SYSTEM>
-21.3064

>  <SCORE.SYSTEM.CONST>
0

>  <SCORE.SYSTEM.DIHEDRAL>
4.76077

>  <SCORE.SYSTEM.POLAR>
-3.05608

>  <SCORE.SYSTEM.SOLV>
-0.00402822

>  <SCORE.SYSTEM.VDW>
-5.60291

>  <SCORE.SYSTEM.norm>
-2.13064

>  <SCORE.heavy>
10

>  <SCORE.norm>
-4.92104

$$$$
P90009263
 OpenBabel12072022113D
libRbt.so/2013.1/901 2013/11/27
 15 14  0  0  0  0  0  0  0  0999 V2000
  -28.3343   17.3537  -15.4040 C   0  0  0  0  0  0  0  0  0  0  0  0
  -29.6095   16.6946  -15.9571 C   0  0  0  0  0  0  0  0  0  0  0  0
  -29.7601   17.0749  -17.4380 C   0  0  0  0  0  0  0  0  0  0  0  0
  -29.4795   15.1711  -15.8162 C   0  0  0  0  0  0  0  0  0  0  0  0
  -30.8295   17.1958  -15.1636 C   0  0  0  0  0  0  0  0  0  0  0  0
  -31.3297   16.5761  -14.2240 O   0  0  0  0  0  0  0  0  0  0  0  0
  -31.3384   18.4133  -15.5742 N   0  0  0  0  0  0  0  0  0  0  0  0
  -32.4078   18.3944  -16.4910 N   0  0  0  0  0  0  0  0  0  0  0  0
  -32.1541   18.9039  -17.7388 C   0  0  0  0  0  0  0  0  0  0  0  0
  -31.1332   19.5043  -18.0502 O   0  0  0  0  0  0  0  0  0  0  0  0
  -33.1702   18.6971  -18.6149 N   0  0  0  0  0  0  0  0  0  0  0  0
  -30.7721   19.2609  -15.5863 H   0  0  0  0  0  0  0  0  0  0  0  0
  -32.9816   17.5536  -16.4377 H   0  0  0  0  0  0  0  0  0  0  0  0
  -33.3450   19.4260  -19.2926 H   0  0  0  0  0  0  0  0  0  0  0  0
  -33.2033   17.7543  -18.9826 H   0  0  0  0  0  0  0  0  0  0  0  0
  1  2  1  0  0  0  0
  2  3  1  0  0  0  0
  2  4  1  0  0  0  0
  2  5  1  0  0  0  0
  5  6  2  0  0  0  0
  5  7  1  0  0  0  0
  7  8  1  0  0  0  0
  7 12  1  0  0  0  0
  8  9  1  0  0  0  0
  8 13  1  0  0  0  0
  9 10  2  0  0  0  0
  9 11  1  0  0  0  0
 11 14  1  0  0  0  0
 11 15  1  0  0  0  0
M  END
>  <CHROM.0>
-59.51171875,-62.46167379,-68.53963841,-43.97740799,-59.23948854,-63.85879029
-67.30273425,-176.71845680,-169.27614603

>  <CHROM.1>
-96.91538337,94.68718702,-114.04550604,-8.97303025,144.60339373,-30.88783867
17.64655013,-16.43027868,-0.86987010,0.35506444,-1.08624177

>  <Name>
P90009263

>  <RI>
0

>  <Rbt.Current_Directory>
/home/fstefaniak/projects/zuza/docking/adenine/4TZX

>  <Rbt.Executable>
rbdock ($Id: //depot/dev/client3/rdock/2013.1/src/exe/rbdock.cxx#4 $)

>  <Rbt.Library>
libRbt.so (2013.1, Build901 2013/11/27)

>  <Rbt.Parameter_File>
/home/fstefaniak/progs/rDock//data/scripts/dock_solv.prm

>  <Rbt.Receptor>
4tzx.prm

>  <SCORE>
-53.769

>  <SCORE.INTER>
-34.0779

>  <SCORE.INTER.CONST>
1

>  <SCORE.INTER.POLAR>
-6.50383

>  <SCORE.INTER.ROT>
5

>  <SCORE.INTER.SOLV>
16.3798

>  <SCORE.INTER.VDW>
-13.4325

>  <SCORE.INTER.norm>
-3.098

>  <SCORE.INTRA>
1.44227

>  <SCORE.INTRA.DIHEDRAL>
1.08826

>  <SCORE.INTRA.DIHEDRAL.0>
2.66295

>  <SCORE.INTRA.POLAR>
0

>  <SCORE.INTRA.POLAR.0>
0

>  <SCORE.INTRA.REPUL>
0

>  <SCORE.INTRA.REPUL.0>
0

>  <SCORE.INTRA.SOLV>
0.89557

>  <SCORE.INTRA.SOLV.lig_0>
-19.4454

>  <SCORE.INTRA.VDW>
0.450351

>  <SCORE.INTRA.VDW.0>
0.712561

>  <SCORE.INTRA.norm>
0.131115

>  <SCORE.RESTR>
0

>  <SCORE.RESTR.CAVITY>
0

>  <SCORE.RESTR.norm>
0

>  <SCORE.SYSTEM>
-21.1333

>  <SCORE.SYSTEM.CONST>
0

>  <SCORE.SYSTEM.DIHEDRAL>
4.51001

>  <SCORE.SYSTEM.POLAR>
-3.01782

>  <SCORE.SYSTEM.SOLV>
0.0405385

>  <SCORE.SYSTEM.VDW>
-5.54632

>  <SCORE.SYSTEM.norm>
-1.92121

>  <SCORE.heavy>
11

>  <SCORE.norm>
-4.88809

$$$$
P90009263
 OpenBabel12072022113D
libRbt.so/2013.1/901 2013/11/27
 15 14  0  0  0  0  0  0  0  0999 V2000
  -28.3411   17.3976  -15.3709 C   0  0  0  0  0  0  0  0  0  0  0  0
  -29.6228   16.7533  -15.9263 C   0  0  0  0  0  0  0  0  0  0  0  0
  -29.7521   17.1129  -17.4143 C   0  0  0  0  0  0  0  0  0  0  0  0
  -29.5224   15.2300  -15.7603 C   0  0  0  0  0  0  0  0  0  0  0  0
  -30.8410   17.2891  -15.1529 C   0  0  0  0  0  0  0  0  0  0  0  0
  -31.3512   16.7017  -14.1980 O   0  0  0  0  0  0  0  0  0  0  0  0
  -31.3360   18.4993  -15.6005 N   0  0  0  0  0  0  0  0  0  0  0  0
  -32.4058   18.4648  -16.5163 N   0  0  0  0  0  0  0  0  0  0  0  0
  -32.1476   18.9360  -17.7781 C   0  0  0  0  0  0  0  0  0  0  0  0
  -31.1130   19.5004  -18.1113 O   0  0  0  0  0  0  0  0  0  0  0  0
  -33.1754   18.7354  -18.6420 N   0  0  0  0  0  0  0  0  0  0  0  0
  -30.7600   19.3395  -15.6384 H   0  0  0  0  0  0  0  0  0  0  0  0
  -32.9878   17.6315  -16.4390 H   0  0  0  0  0  0  0  0  0  0  0  0
  -33.3676   19.4748  -19.3034 H   0  0  0  0  0  0  0  0  0  0  0  0
  -33.2053   17.7991  -19.0264 H   0  0  0  0  0  0  0  0  0  0  0  0
  1  2  1  0  0  0  0
  2  3  1  0  0  0  0
  2  4  1  0  0  0  0
  2  5  1  0  0  0  0
  5  6  2  0  0  0  0
  5  7  1  0  0  0  0
  7  8  1  0  0  0  0
  7 12  1  0  0  0  0
  8  9  1  0  0  0  0
  8 13  1  0  0  0  0
  9 10  2  0  0  0  0
  9 11  1  0  0  0  0
 11 14  1  0  0  0  0
 11 15  1  0  0  0  0
M  END
>  <CHROM.0>
-60.09676477,-66.43344370,-66.89432849,-43.44331876,-59.37055732,-66.60592125
-68.74713309,-56.71691522,-169.36405058

>  <CHROM.1>
-95.97047124,94.97191765,-114.20127700,-7.87767855,141.31142859,-30.89349881
17.70468342,-16.43060400,-0.87461287,0.36166013,-1.11150902

>  <Name>
P90009263

>  <RI>
0

>  <Rbt.Current_Directory>
/home/fstefaniak/projects/zuza/docking/adenine/4TZX

>  <Rbt.Executable>
rbdock ($Id: //depot/dev/client3/rdock/2013.1/src/exe/rbdock.cxx#4 $)

>  <Rbt.Library>
libRbt.so (2013.1, Build901 2013/11/27)

>  <Rbt.Parameter_File>
/home/fstefaniak/progs/rDock//data/scripts/dock_solv.prm

>  <Rbt.Receptor>
4tzx.prm

>  <SCORE>
-53.7461

>  <SCORE.INTER>
-34.2217

>  <SCORE.INTER.CONST>
1

>  <SCORE.INTER.POLAR>
-6.58052

>  <SCORE.INTER.ROT>
5

>  <SCORE.INTER.SOLV>
16.388

>  <SCORE.INTER.VDW>
-13.2754

>  <SCORE.INTER.norm>
-3.11106

>  <SCORE.INTRA>
1.61841

>  <SCORE.INTRA.DIHEDRAL>
1.20661

>  <SCORE.INTRA.DIHEDRAL.0>
2.66295

>  <SCORE.INTRA.POLAR>
0

>  <SCORE.INTRA.POLAR.0>
0

>  <SCORE.INTRA.REPUL>
0

>  <SCORE.INTRA.REPUL.0>
0

>  <SCORE.INTRA.SOLV>
0.884535

>  <SCORE.INTRA.SOLV.lig_0>
-19.4454

>  <SCORE.INTRA.VDW>
0.572837

>  <SCORE.INTRA.VDW.0>
0.712561

>  <SCORE.INTRA.norm>
0.147128

>  <SCORE.RESTR>
0

>  <SCORE.RESTR.CAVITY>
0

>  <SCORE.RESTR.norm>
0

>  <SCORE.SYSTEM>
-21.1429

>  <SCORE.SYSTEM.CONST>
0

>  <SCORE.SYSTEM.DIHEDRAL>
4.86206

>  <SCORE.SYSTEM.POLAR>
-3.03875

>  <SCORE.SYSTEM.SOLV>
0.16644

>  <SCORE.SYSTEM.VDW>
-5.64225

>  <SCORE.SYSTEM.norm>
-1.92208

>  <SCORE.heavy>
11

>  <SCORE.norm>
-4.88601

$$$$
P90009263
 OpenBabel12072022113D
libRbt.so/2013.1/901 2013/11/27
 15 14  0  0  0  0  0  0  0  0999 V2000
  -29.7272   17.0971  -17.4013 C   0  0  0  0  0  0  0  0  0  0  0  0
  -29.5818   16.7474  -15.9103 C   0  0  0  0  0  0  0  0  0  0  0  0
  -29.4796   15.2211  -15.7681 C   0  0  0  0  0  0  0  0  0  0  0  0
  -28.3081   17.4123  -15.3684 C   0  0  0  0  0  0  0  0  0  0  0  0
  -30.8129   17.2611  -15.1422 C   0  0  0  0  0  0  0  0  0  0  0  0
  -31.3244   16.6580  -14.1980 O   0  0  0  0  0  0  0  0  0  0  0  0
  -31.3180   18.4700  -15.5818 N   0  0  0  0  0  0  0  0  0  0  0  0
  -32.3835   18.4325  -16.5025 N   0  0  0  0  0  0  0  0  0  0  0  0
  -32.1189   18.8984  -17.7650 C   0  0  0  0  0  0  0  0  0  0  0  0
  -31.0805   19.4565  -18.0967 O   0  0  0  0  0  0  0  0  0  0  0  0
  -33.1450   18.7003  -18.6314 N   0  0  0  0  0  0  0  0  0  0  0  0
  -30.7503   19.3162  -15.6101 H   0  0  0  0  0  0  0  0  0  0  0  0
  -32.9665   17.6000  -16.4246 H   0  0  0  0  0  0  0  0  0  0  0  0
  -33.3272   19.4357  -19.3001 H   0  0  0  0  0  0  0  0  0  0  0  0
  -33.1825   17.7610  -19.0078 H   0  0  0  0  0  0  0  0  0  0  0  0
  1  2  1  0  0  0  0
  2  3  1  0  0  0  0
  2  4  1  0  0  0  0
  2  5  1  0  0  0  0
  5  6  2  0  0  0  0
  5  7  1  0  0  0  0
  7  8  1  0  0  0  0
  7 12  1  0  0  0  0
  8  9  1  0  0  0  0
  8 13  1  0  0  0  0
  9 10  2  0  0  0  0
  9 11  1  0  0  0  0
 11 14  1  0  0  0  0
 11 15  1  0  0  0  0
M  END
>  <CHROM.0>
-58.18832151,-64.21005360,-63.54665465,-43.86692528,61.02537166,58.67548943
-69.19437236,-52.89061120,-168.16625671

>  <CHROM.1>
143.42062437,95.26422436,-113.25531106,-7.60865636,141.73479221,-30.86381028
17.68020202,-16.42120713,-0.87284830,0.34955638,-1.10796007

>  <Name>
P90009263

>  <RI>
0

>  <Rbt.Current_Directory>
/home/fstefaniak/projects/zuza/docking/adenine/4TZX

>  <Rbt.Executable>
rbdock ($Id: //depot/dev/client3/rdock/2013.1/src/exe/rbdock.cxx#4 $)

>  <Rbt.Library>
libRbt.so (2013.1, Build901 2013/11/27)

>  <Rbt.Parameter_File>
/home/fstefaniak/progs/rDock//data/scripts/dock_solv.prm

>  <Rbt.Receptor>
4tzx.prm

>  <SCORE>
-51.5902

>  <SCORE.INTER>
-34.2698

>  <SCORE.INTER.CONST>
1

>  <SCORE.INTER.POLAR>
-6.62717

>  <SCORE.INTER.ROT>
5

>  <SCORE.INTER.SOLV>
16.2653

>  <SCORE.INTER.VDW>
-13.1111

>  <SCORE.INTER.norm>
-3.11543

>  <SCORE.INTRA>
1.7672

>  <SCORE.INTRA.DIHEDRAL>
1.11176

>  <SCORE.INTRA.DIHEDRAL.0>
2.66295

>  <SCORE.INTRA.POLAR>
0

>  <SCORE.INTRA.POLAR.0>
0

>  <SCORE.INTRA.REPUL>
0

>  <SCORE.INTRA.REPUL.0>
0

>  <SCORE.INTRA.SOLV>
0.907054

>  <SCORE.INTRA.SOLV.lig_0>
-19.4454

>  <SCORE.INTRA.VDW>
0.757793

>  <SCORE.INTRA.VDW.0>
0.712561

>  <SCORE.INTRA.norm>
0.160655

>  <SCORE.RESTR>
0

>  <SCORE.RESTR.CAVITY>
0

>  <SCORE.RESTR.norm>
0

>  <SCORE.SYSTEM>
-19.0876

>  <SCORE.SYSTEM.CONST>
0

>  <SCORE.SYSTEM.DIHEDRAL>
4.68948

>  <SCORE.SYSTEM.POLAR>
-3.06386

>  <SCORE.SYSTEM.SOLV>
-0.161535

>  <SCORE.SYSTEM.VDW>
-4.02153

>  <SCORE.SYSTEM.norm>
-1.73524

>  <SCORE.heavy>
11

>  <SCORE.norm>
-4.69002

$$$$
P90543722
 OpenBabel12072022113D
libRbt.so/2013.1/901 2013/11/27
 14 13  0  0  0  0  0  0  0  0999 V2000
  -29.7729   17.2379  -17.4551 C   0  0  0  0  0  0  0  0  0  0  0  0
  -28.7942   17.0334  -16.2999 C   0  0  1  0  0  0  0  0  0  0  0  0
  -29.4615   17.1154  -14.9068 C   0  0  0  0  0  0  0  0  0  0  0  0
  -28.7650   17.6297  -13.9323 N   0  0  0  0  0  0  0  0  0  0  0  0
  -29.4828   17.5730  -12.7256 O   0  0  0  0  0  0  0  0  0  0  0  0
  -30.7246   16.5945  -14.7441 N   0  0  0  0  0  0  0  0  0  0  0  0
  -27.9972   15.7919  -16.3978 N   0  0  0  0  0  0  0  0  0  0  0  0
  -26.5515   15.9783  -16.4085 C   0  0  0  0  0  0  0  0  0  0  0  0
  -28.6133   14.5538  -16.2777 C   0  0  0  0  0  0  0  0  0  0  0  0
  -29.8117   14.4258  -16.0170 O   0  0  0  0  0  0  0  0  0  0  0  0
  -27.7549   13.3270  -16.4558 C   0  0  0  0  0  0  0  0  0  0  0  0
  -28.7860   17.3435  -12.0835 H   0  0  0  0  0  0  0  0  0  0  0  0
  -31.4671   17.2482  -15.0121 H   0  0  0  0  0  0  0  0  0  0  0  0
  -30.8064   15.6954  -15.2067 H   0  0  0  0  0  0  0  0  0  0  0  0
  2  1  1  6  0  0  0
  2  3  1  0  0  0  0
  2  7  1  0  0  0  0
  3  4  2  0  0  0  0
  3  6  1  0  0  0  0
  4  5  1  0  0  0  0
  5 12  1  0  0  0  0
  6 13  1  0  0  0  0
  6 14  1  0  0  0  0
  7  8  1  0  0  0  0
  7  9  1  0  0  0  0
  9 10  2  0  0  0  0
  9 11  1  0  0  0  0
M  END
>  <CHROM.0>
-61.95544138,-63.63708001,62.11271187,-42.50178056,-177.61791157,-176.44686288
55.43884420,-59.30898267,-168.44334334

>  <CHROM.1>
-145.54748986,122.07511949,-84.39919485,140.63563493,-28.91159855,16.11372595
-15.56115553,1.19022014,0.13188853,-2.32481513

>  <Name>
P90543722

>  <RI>
0

>  <Rbt.Current_Directory>
/home/fstefaniak/projects/zuza/docking/adenine/4TZX

>  <Rbt.Executable>
rbdock ($Id: //depot/dev/client3/rdock/2013.1/src/exe/rbdock.cxx#4 $)

>  <Rbt.Library>
libRbt.so (2013.1, Build901 2013/11/27)

>  <Rbt.Parameter_File>
/home/fstefaniak/progs/rDock//data/scripts/dock_solv.prm

>  <Rbt.Receptor>
4tzx.prm

>  <SCORE>
-44.041

>  <SCORE.INTER>
-24.1753

>  <SCORE.INTER.CONST>
1

>  <SCORE.INTER.POLAR>
-2.85894

>  <SCORE.INTER.ROT>
3

>  <SCORE.INTER.SOLV>
11.77

>  <SCORE.INTER.VDW>
-16.1104

>  <SCORE.INTER.norm>
-2.19776

>  <SCORE.INTRA>
-0.738609

>  <SCORE.INTRA.DIHEDRAL>
-0.684496

>  <SCORE.INTRA.DIHEDRAL.0>
4.57691

>  <SCORE.INTRA.POLAR>
-0.0844594

>  <SCORE.INTRA.POLAR.0>
-0.747536

>  <SCORE.INTRA.REPUL>
0

>  <SCORE.INTRA.REPUL.0>
0

>  <SCORE.INTRA.SOLV>
-0.0260485

>  <SCORE.INTRA.SOLV.lig_0>
-11.6591

>  <SCORE.INTRA.VDW>
-0.0961746

>  <SCORE.INTRA.VDW.0>
-0.80116

>  <SCORE.INTRA.norm>
-0.0671462

>  <SCORE.RESTR>
0

>  <SCORE.RESTR.CAVITY>
0

>  <SCORE.RESTR.norm>
0

>  <SCORE.SYSTEM>
-19.1271

>  <SCORE.SYSTEM.CONST>
0

>  <SCORE.SYSTEM.DIHEDRAL>
4.36153

>  <SCORE.SYSTEM.POLAR>
-3.02559

>  <SCORE.SYSTEM.SOLV>
-0.229662

>  <SCORE.SYSTEM.VDW>
-4.04337

>  <SCORE.SYSTEM.norm>
-1.73882

>  <SCORE.heavy>
11

>  <SCORE.norm>
-4.00373

$$$$
P90543722
 OpenBabel12072022113D
libRbt.so/2013.1/901 2013/11/27
 14 13  0  0  0  0  0  0  0  0999 V2000
  -29.8033   17.2106  -17.5212 C   0  0  0  0  0  0  0  0  0  0  0  0
  -28.8425   17.0168  -16.3494 C   0  0  1  0  0  0  0  0  0  0  0  0
  -29.5198   17.1694  -14.9672 C   0  0  0  0  0  0  0  0  0  0  0  0
  -28.7759   17.5557  -13.9688 N   0  0  0  0  0  0  0  0  0  0  0  0
  -29.5197   17.5823  -12.7769 O   0  0  0  0  0  0  0  0  0  0  0  0
  -30.8492   16.8384  -14.8391 N   0  0  0  0  0  0  0  0  0  0  0  0
  -28.0846   15.7481  -16.3950 N   0  0  0  0  0  0  0  0  0  0  0  0
  -26.6354   15.8897  -16.4642 C   0  0  0  0  0  0  0  0  0  0  0  0
  -28.7307   14.5389  -16.1774 C   0  0  0  0  0  0  0  0  0  0  0  0
  -29.9227   14.4636  -15.8704 O   0  0  0  0  0  0  0  0  0  0  0  0
  -27.9138   13.2781  -16.3059 C   0  0  0  0  0  0  0  0  0  0  0  0
  -29.7170   18.5321  -12.6799 H   0  0  0  0  0  0  0  0  0  0  0  0
  -31.4805   17.5634  -15.1944 H   0  0  0  0  0  0  0  0  0  0  0  0
  -31.0338   15.9251  -15.2404 H   0  0  0  0  0  0  0  0  0  0  0  0
  2  1  1  6  0  0  0
  2  3  1  0  0  0  0
  2  7  1  0  0  0  0
  3  4  2  0  0  0  0
  3  6  1  0  0  0  0
  4  5  1  0  0  0  0
  5 12  1  0  0  0  0
  6 13  1  0  0  0  0
  6 14  1  0  0  0  0
  7  8  1  0  0  0  0
  7  9  1  0  0  0  0
  9 10  2  0  0  0  0
  9 11  1  0  0  0  0
M  END
>  <CHROM.0>
-59.52308772,-63.81330129,58.98261022,-43.27655961,58.86720171,-57.09890664
55.90703977,-56.65702892,-168.66074817

>  <CHROM.1>
-153.00882338,119.15196402,-78.56874533,-101.03829095,-28.99650299,16.12656502
-15.56641233,0.78574559,1.00027604,-1.72563899

>  <Name>
P90543722

>  <RI>
0

>  <Rbt.Current_Directory>
/home/fstefaniak/projects/zuza/docking/adenine/4TZX

>  <Rbt.Executable>
rbdock ($Id: //depot/dev/client3/rdock/2013.1/src/exe/rbdock.cxx#4 $)

>  <Rbt.Library>
libRbt.so (2013.1, Build901 2013/11/27)

>  <Rbt.Parameter_File>
/home/fstefaniak/progs/rDock//data/scripts/dock_solv.prm

>  <Rbt.Receptor>
4tzx.prm

>  <SCORE>
-43.1501

>  <SCORE.INTER>
-24.0982

>  <SCORE.INTER.CONST>
1

>  <SCORE.INTER.POLAR>
-2.93291

>  <SCORE.INTER.ROT>
3

>  <SCORE.INTER.SOLV>
11.6983

>  <SCORE.INTER.VDW>
-15.7885

>  <SCORE.INTER.norm>
-2.19075

>  <SCORE.INTRA>
-0.791703

>  <SCORE.INTRA.DIHEDRAL>
-1.7702

>  <SCORE.INTRA.DIHEDRAL.0>
4.57691

>  <SCORE.INTRA.POLAR>
0.0557188

>  <SCORE.INTRA.POLAR.0>
-0.747536

>  <SCORE.INTRA.REPUL>
0

>  <SCORE.INTRA.REPUL.0>
0

>  <SCORE.INTRA.SOLV>
-0.0519145

>  <SCORE.INTRA.SOLV.lig_0>
-11.6591

>  <SCORE.INTRA.VDW>
-0.0700917

>  <SCORE.INTRA.VDW.0>
-0.80116

>  <SCORE.INTRA.norm>
-0.071973

>  <SCORE.RESTR>
0

>  <SCORE.RESTR.CAVITY>
0

>  <SCORE.RESTR.norm>
0

>  <SCORE.SYSTEM>
-18.2602

>  <SCORE.SYSTEM.CONST>
0

>  <SCORE.SYSTEM.DIHEDRAL>
4.19453

>  <SCORE.SYSTEM.POLAR>
-3.04242

>  <SCORE.SYSTEM.SOLV>
-0.12928

>  <SCORE.SYSTEM.VDW>
-3.38714

>  <SCORE.SYSTEM.norm>
-1.66002

>  <SCORE.heavy>
11

>  <SCORE.norm>
-3.92274

$$$$
P90543722
 OpenBabel12072022113D
libRbt.so/2013.1/901 2013/11/27
 14 13  0  0  0  0  0  0  0  0999 V2000
  -29.6820   17.1671  -17.4632 C   0  0  0  0  0  0  0  0  0  0  0  0
  -28.7523   16.9401  -16.2723 C   0  0  1  0  0  0  0  0  0  0  0  0
  -29.4595   17.0834  -14.9041 C   0  0  0  0  0  0  0  0  0  0  0  0
  -28.7604   17.5513  -13.9083 N   0  0  0  0  0  0  0  0  0  0  0  0
  -29.5219   17.5586  -12.7274 O   0  0  0  0  0  0  0  0  0  0  0  0
  -30.7633   16.6608  -14.7833 N   0  0  0  0  0  0  0  0  0  0  0  0
  -28.0140   15.6600  -16.3195 N   0  0  0  0  0  0  0  0  0  0  0  0
  -28.8442   14.4622  -16.3498 C   0  0  0  0  0  0  0  0  0  0  0  0
  -26.6414   15.6513  -16.5268 C   0  0  0  0  0  0  0  0  0  0  0  0
  -25.9924   16.6758  -16.7499 O   0  0  0  0  0  0  0  0  0  0  0  0
  -25.9394   14.3172  -16.4954 C   0  0  0  0  0  0  0  0  0  0  0  0
  -28.8563   17.3289  -12.0532 H   0  0  0  0  0  0  0  0  0  0  0  0
  -31.4456   17.3837  -15.0334 H   0  0  0  0  0  0  0  0  0  0  0  0
  -30.9091   15.7919  -15.2861 H   0  0  0  0  0  0  0  0  0  0  0  0
  2  1  1  6  0  0  0
  2  3  1  0  0  0  0
  2  7  1  0  0  0  0
  3  4  2  0  0  0  0
  3  6  1  0  0  0  0
  4  5  1  0  0  0  0
  5 12  1  0  0  0  0
  6 13  1  0  0  0  0
  6 14  1  0  0  0  0
  7  8  1  0  0  0  0
  7  9  1  0  0  0  0
  9 10  2  0  0  0  0
  9 11  1  0  0  0  0
M  END
>  <CHROM.0>
-57.66633401,-61.05063216,-64.20872538,-41.23077891,-57.55478129,-59.38425317
-63.71542538,-174.72620023,-168.84603468

>  <CHROM.1>
-147.30448998,-59.81125134,-87.46320065,143.54879129,-28.42123561,16.34352775
-15.64517916,2.36690560,-0.24011691,1.18071973

>  <Name>
P90543722

>  <RI>
0

>  <Rbt.Current_Directory>
/home/fstefaniak/projects/zuza/docking/adenine/4TZX

>  <Rbt.Executable>
rbdock ($Id: //depot/dev/client3/rdock/2013.1/src/exe/rbdock.cxx#4 $)

>  <Rbt.Library>
libRbt.so (2013.1, Build901 2013/11/27)

>  <Rbt.Parameter_File>
/home/fstefaniak/progs/rDock//data/scripts/dock_solv.prm

>  <Rbt.Receptor>
4tzx.prm

>  <SCORE>
-41.8657

>  <SCORE.INTER>
-24.6339

>  <SCORE.INTER.CONST>
1

>  <SCORE.INTER.POLAR>
-2.94543

>  <SCORE.INTER.ROT>
3

>  <SCORE.INTER.SOLV>
11.832

>  <SCORE.INTER.VDW>
-16.1485

>  <SCORE.INTER.norm>
-2.23945

>  <SCORE.INTRA>
3.75024

>  <SCORE.INTRA.DIHEDRAL>
-0.691853

>  <SCORE.INTRA.DIHEDRAL.0>
4.57691

>  <SCORE.INTRA.POLAR>
0.747536

>  <SCORE.INTRA.POLAR.0>
-0.747536

>  <SCORE.INTRA.REPUL>
0

>  <SCORE.INTRA.REPUL.0>
0

>  <SCORE.INTRA.SOLV>
-1.09077

>  <SCORE.INTRA.SOLV.lig_0>
-11.6591

>  <SCORE.INTRA.VDW>
2.09993

>  <SCORE.INTRA.VDW.0>
-0.80116

>  <SCORE.INTRA.norm>
0.340931

>  <SCORE.RESTR>
0

>  <SCORE.RESTR.CAVITY>
0

>  <SCORE.RESTR.norm>
0

>  <SCORE.SYSTEM>
-20.9821

>  <SCORE.SYSTEM.CONST>
0

>  <SCORE.SYSTEM.DIHEDRAL>
4.55845

>  <SCORE.SYSTEM.POLAR>
-3.09509

>  <SCORE.SYSTEM.SOLV>
0.0777447

>  <SCORE.SYSTEM.VDW>
-5.21649

>  <SCORE.SYSTEM.norm>
-1.90746

>  <SCORE.heavy>
11

>  <SCORE.norm>
-3.80598

$$$$
P90563101
 OpenBabel12072022113D
libRbt.so/2013.1/901 2013/11/27
 13 13  0  0  0  0  0  0  0  0999 V2000
  -27.5800   16.1236  -16.1813 C   0  0  0  0  0  0  0  0  0  0  0  0
  -29.0502   15.8133  -15.9832 C   0  0  1  0  0  0  0  0  0  0  0  0
  -29.5538   16.5457  -14.8641 O   0  0  0  0  0  0  0  0  0  0  0  0
  -30.8825   16.8958  -15.2538 C   0  0  0  0  0  0  0  0  0  0  0  0
  -30.7603   17.1248  -16.7447 C   0  0  2  0  0  0  0  0  0  0  0  0
  -29.7880   16.1568  -17.1631 O   0  0  0  0  0  0  0  0  0  0  0  0
  -30.2947   18.5512  -17.0801 C   0  0  1  0  0  0  0  0  0  0  0  0
  -30.2019   18.7716  -18.6023 C   0  0  0  0  0  0  0  0  0  0  0  0
  -31.4724   18.4301  -19.2664 N   0  0  0  0  0  0  0  0  0  0  0  0
  -31.2127   19.5036  -16.5245 O   0  0  0  0  0  0  0  0  0  0  0  0
  -31.5508   17.4117  -19.2978 H   0  0  0  0  0  0  0  0  0  0  0  0
  -31.4063   18.7125  -20.2458 H   0  0  0  0  0  0  0  0  0  0  0  0
  -30.7963   20.3676  -16.7139 H   0  0  0  0  0  0  0  0  0  0  0  0
  2  1  1  6  0  0  0
  2  3  1  0  0  0  0
  2  6  1  0  0  0  0
  3  4  1  0  0  0  0
  4  5  1  0  0  0  0
  5  6  1  0  0  0  0
  5  7  1  1  0  0  0
  7  8  1  6  0  0  0
  7 10  1  0  0  0  0
  8  9  1  0  0  0  0
  9 11  1  0  0  0  0
  9 12  1  0  0  0  0
 10 13  1  0  0  0  0
M  END
>  <CHROM.0>
-49.07973992,-177.43406088,-65.54204243,-43.49502468,-67.77323026,-60.88877300
-66.72058542,-172.58425618,-168.86991040

>  <CHROM.1>
-178.94649703,54.03953596,174.94790961,-75.04493273,-30.09154191,17.41752254
-16.78276503,-0.78014218,0.80703699,-1.38538971

>  <Name>
P90563101

>  <RI>
0

>  <Rbt.Current_Directory>
/home/fstefaniak/projects/zuza/docking/adenine/4TZX

>  <Rbt.Executable>
rbdock ($Id: //depot/dev/client3/rdock/2013.1/src/exe/rbdock.cxx#4 $)

>  <Rbt.Library>
libRbt.so (2013.1, Build901 2013/11/27)

>  <Rbt.Parameter_File>
/home/fstefaniak/progs/rDock//data/scripts/dock_solv.prm

>  <Rbt.Receptor>
4tzx.prm

>  <SCORE>
-50.2969

>  <SCORE.INTER>
-29.5198

>  <SCORE.INTER.CONST>
1

>  <SCORE.INTER.POLAR>
-4.76379

>  <SCORE.INTER.ROT>
3

>  <SCORE.INTER.SOLV>
12.2425

>  <SCORE.INTER.VDW>
-13.4814

>  <SCORE.INTER.norm>
-2.95198

>  <SCORE.INTRA>
-0.139454

>  <SCORE.INTRA.DIHEDRAL>
-0.728222

>  <SCORE.INTRA.DIHEDRAL.0>
1.26769

>  <SCORE.INTRA.POLAR>
0.0804359

>  <SCORE.INTRA.POLAR.0>
-0.0804359

>  <SCORE.INTRA.REPUL>
0

>  <SCORE.INTRA.REPUL.0>
0

>  <SCORE.INTRA.SOLV>
0.259569

>  <SCORE.INTRA.SOLV.lig_0>
-12.8831

>  <SCORE.INTRA.VDW>
-0.178609

>  <SCORE.INTRA.VDW.0>
-0.267487

>  <SCORE.INTRA.norm>
-0.0139454

>  <SCORE.RESTR>
0

>  <SCORE.RESTR.CAVITY>
0

>  <SCORE.RESTR.norm>
0

>  <SCORE.SYSTEM>
-20.6376

>  <SCORE.SYSTEM.CONST>
0

>  <SCORE.SYSTEM.DIHEDRAL>
5.32384

>  <SCORE.SYSTEM.POLAR>
-3.13405

>  <SCORE.SYSTEM.SOLV>
0.0276968

>  <SCORE.SYSTEM.VDW>
-5.09541

>  <SCORE.SYSTEM.norm>
-2.06376

>  <SCORE.heavy>
10

>  <SCORE.norm>
-5.02969

$$$$
P90563101
 OpenBabel12072022113D
libRbt.so/2013.1/901 2013/11/27
 13 13  0  0  0  0  0  0  0  0999 V2000
  -31.2100   17.8465  -14.2083 C   0  0  0  0  0  0  0  0  0  0  0  0
  -29.8770   17.3329  -14.7146 C   0  0  1  0  0  0  0  0  0  0  0  0
  -30.0283   16.0027  -15.2149 O   0  0  0  0  0  0  0  0  0  0  0  0
  -29.1463   15.9567  -16.3373 C   0  0  0  0  0  0  0  0  0  0  0  0
  -29.2334   17.3557  -16.9077 C   0  0  2  0  0  0  0  0  0  0  0  0
  -29.3816   18.1905  -15.7508 O   0  0  0  0  0  0  0  0  0  0  0  0
  -30.4268   17.5236  -17.8625 C   0  0  1  0  0  0  0  0  0  0  0  0
  -31.2659   18.7654  -17.5046 C   0  0  0  0  0  0  0  0  0  0  0  0
  -32.5441   18.7716  -18.2381 N   0  0  0  0  0  0  0  0  0  0  0  0
  -29.9539   17.6512  -19.2111 O   0  0  0  0  0  0  0  0  0  0  0  0
  -32.5522   17.9678  -18.8691 H   0  0  0  0  0  0  0  0  0  0  0  0
  -32.5525   19.5838  -18.8574 H   0  0  0  0  0  0  0  0  0  0  0  0
  -29.4230   16.8422  -19.3501 H   0  0  0  0  0  0  0  0  0  0  0  0
  2  1  1  6  0  0  0
  2  3  1  0  0  0  0
  2  6  1  0  0  0  0
  3  4  1  0  0  0  0
  4  5  1  0  0  0  0
  5  6  1  0  0  0  0
  5  7  1  6  0  0  0
  7  8  1  1  0  0  0
  7 10  1  0  0  0  0
  8  9  1  0  0  0  0
  9 11  1  0  0  0  0
  9 12  1  0  0  0  0
 10 13  1  0  0  0  0
M  END
>  <CHROM.0>
-60.92599074,59.14051291,-66.31658806,-41.46178778,178.87090081,-59.73969014
-68.59111859,-173.52648285,-168.91907987

>  <CHROM.1>
129.69311678,-168.55787655,56.51495954,-3.58300825,-30.32591987,17.54615749
-16.63565772,1.17367671,-0.66238972,1.67232203

>  <Name>
P90563101

>  <RI>
0

>  <Rbt.Current_Directory>
/home/fstefaniak/projects/zuza/docking/adenine/4TZX

>  <Rbt.Executable>
rbdock ($Id: //depot/dev/client3/rdock/2013.1/src/exe/rbdock.cxx#4 $)

>  <Rbt.Library>
libRbt.so (2013.1, Build901 2013/11/27)

>  <Rbt.Parameter_File>
/home/fstefaniak/progs/rDock//data/scripts/dock_solv.prm

>  <Rbt.Receptor>
4tzx.prm

>  <SCORE>
-50.1019

>  <SCORE.INTER>
-34.6818

>  <SCORE.INTER.CONST>
1

>  <SCORE.INTER.POLAR>
-5.24032

>  <SCORE.INTER.ROT>
3

>  <SCORE.INTER.SOLV>
13.0986

>  <SCORE.INTER.VDW>
-15.6197

>  <SCORE.INTER.norm>
-3.46818

>  <SCORE.INTRA>
4.96752

>  <SCORE.INTRA.DIHEDRAL>
6.71056

>  <SCORE.INTRA.DIHEDRAL.0>
1.26769

>  <SCORE.INTRA.POLAR>
0.0804359

>  <SCORE.INTRA.POLAR.0>
-0.0804359

>  <SCORE.INTRA.REPUL>
0

>  <SCORE.INTRA.REPUL.0>
0

>  <SCORE.INTRA.SOLV>
-0.0625872

>  <SCORE.INTRA.SOLV.lig_0>
-12.8831

>  <SCORE.INTRA.VDW>
1.37006

>  <SCORE.INTRA.VDW.0>
-0.267487

>  <SCORE.INTRA.norm>
0.496752

>  <SCORE.RESTR>
0

>  <SCORE.RESTR.CAVITY>
0

>  <SCORE.RESTR.norm>
0

>  <SCORE.SYSTEM>
-20.3876

>  <SCORE.SYSTEM.CONST>
0

>  <SCORE.SYSTEM.DIHEDRAL>
4.90203

>  <SCORE.SYSTEM.POLAR>
-3.06577

>  <SCORE.SYSTEM.SOLV>
-0.0665379

>  <SCORE.SYSTEM.VDW>
-4.98437

>  <SCORE.SYSTEM.norm>
-2.03876

>  <SCORE.heavy>
10

>  <SCORE.norm>
-5.01019

$$$$
P90563101
 OpenBabel12072022113D
libRbt.so/2013.1/901 2013/11/27
 13 13  0  0  0  0  0  0  0  0999 V2000
  -27.6037   16.0735  -16.2384 C   0  0  0  0  0  0  0  0  0  0  0  0
  -29.0756   15.7915  -16.0123 C   0  0  1  0  0  0  0  0  0  0  0  0
  -29.5392   16.5196  -14.8732 O   0  0  0  0  0  0  0  0  0  0  0  0
  -30.8682   16.9027  -15.2293 C   0  0  0  0  0  0  0  0  0  0  0  0
  -30.7734   17.1486  -16.7195 C   0  0  2  0  0  0  0  0  0  0  0  0
  -29.8312   16.1660  -17.1713 O   0  0  0  0  0  0  0  0  0  0  0  0
  -30.2848   18.5693  -17.0468 C   0  0  1  0  0  0  0  0  0  0  0  0
  -30.1959   18.7993  -18.5678 C   0  0  0  0  0  0  0  0  0  0  0  0
  -31.4495   18.4100  -19.2376 N   0  0  0  0  0  0  0  0  0  0  0  0
  -31.1834   19.5333  -16.4796 O   0  0  0  0  0  0  0  0  0  0  0  0
  -31.4873   17.3894  -19.2729 H   0  0  0  0  0  0  0  0  0  0  0  0
  -31.3914   18.6984  -20.2158 H   0  0  0  0  0  0  0  0  0  0  0  0
  -30.7919   20.3933  -16.7298 H   0  0  0  0  0  0  0  0  0  0  0  0
  2  1  1  6  0  0  0
  2  3  1  0  0  0  0
  2  6  1  0  0  0  0
  3  4  1  0  0  0  0
  4  5  1  0  0  0  0
  5  6  1  0  0  0  0
  5  7  1  1  0  0  0
  7  8  1  6  0  0  0
  7 10  1  0  0  0  0
  8  9  1  0  0  0  0
  9 11  1  0  0  0  0
  9 12  1  0  0  0  0
 10 13  1  0  0  0  0
M  END
>  <CHROM.0>
-47.75465633,-176.05641609,-46.88804697,-43.64805251,-60.37660864,-63.91671323
-66.01337829,-175.43306398,-169.35837197

>  <CHROM.1>
-179.97549946,50.71858471,179.52700782,-75.02831074,-30.09176686,17.41686273
-16.77434047,-0.75977603,0.83519981,-1.39556427

>  <Name>
P90563101

>  <RI>
0

>  <Rbt.Current_Directory>
/home/fstefaniak/projects/zuza/docking/adenine/4TZX

>  <Rbt.Executable>
rbdock ($Id: //depot/dev/client3/rdock/2013.1/src/exe/rbdock.cxx#4 $)

>  <Rbt.Library>
libRbt.so (2013.1, Build901 2013/11/27)

>  <Rbt.Parameter_File>
/home/fstefaniak/progs/rDock//data/scripts/dock_solv.prm

>  <Rbt.Receptor>
4tzx.prm

>  <SCORE>
-49.9907

>  <SCORE.INTER>
-29.7381

>  <SCORE.INTER.CONST>
1

>  <SCORE.INTER.POLAR>
-4.74696

>  <SCORE.INTER.ROT>
3

>  <SCORE.INTER.SOLV>
12.2884

>  <SCORE.INTER.VDW>
-13.6983

>  <SCORE.INTER.norm>
-2.97381

>  <SCORE.INTRA>
0.0222257

>  <SCORE.INTRA.DIHEDRAL>
-0.676343

>  <SCORE.INTRA.DIHEDRAL.0>
1.26769

>  <SCORE.INTRA.POLAR>
0.0804359

>  <SCORE.INTRA.POLAR.0>
-0.0804359

>  <SCORE.INTRA.REPUL>
0

>  <SCORE.INTRA.REPUL.0>
0

>  <SCORE.INTRA.SOLV>
0.260754

>  <SCORE.INTRA.SOLV.lig_0>
-12.8831

>  <SCORE.INTRA.VDW>
-0.0434617

>  <SCORE.INTRA.VDW.0>
-0.267487

>  <SCORE.INTRA.norm>
0.00222257

>  <SCORE.RESTR>
0

>  <SCORE.RESTR.CAVITY>
0

>  <SCORE.RESTR.norm>
0

>  <SCORE.SYSTEM>
-20.2748

>  <SCORE.SYSTEM.CONST>
0

>  <SCORE.SYSTEM.DIHEDRAL>
5.65217

>  <SCORE.SYSTEM.POLAR>
-3.23868

>  <SCORE.SYSTEM.SOLV>
0.0598302

>  <SCORE.SYSTEM.VDW>
-4.62493

>  <SCORE.SYSTEM.norm>
-2.02748

>  <SCORE.heavy>
10

>  <SCORE.norm>
-4.99907

$$$$
P90832059
 OpenBabel12072022113D
libRbt.so/2013.1/901 2013/11/27
 14 13  0  0  0  0  0  0  0  0999 V2000
  -31.0309   17.8477  -15.5907 C   0  0  0  0  0  0  0  0  0  0  0  0
  -30.1520   16.8768  -16.3634 C   0  0  2  0  0  0  0  0  0  0  0  0
  -28.8295   16.6088  -15.6275 C   0  0  0  0  0  0  0  0  0  0  0  0
  -28.0365   15.5723  -16.3001 N   0  0  0  0  0  0  0  0  0  0  0  0
  -26.6351   15.6759  -16.3125 C   0  0  0  0  0  0  0  0  0  0  0  0
  -26.0147   16.6082  -15.8139 O   0  0  0  0  0  0  0  0  0  0  0  0
  -26.0265   14.6061  -16.9419 N   0  0  0  0  0  0  0  0  0  0  0  0
  -25.4555   13.5452  -16.1510 C   0  0  0  0  0  0  0  0  0  0  0  0
  -28.6863   14.3321  -16.5804 N   0  0  0  0  0  0  0  0  0  0  0  0
  -29.8828   17.4568  -17.6456 O   0  0  0  0  0  0  0  0  0  0  0  0
  -25.5244   14.8707  -17.7751 H   0  0  0  0  0  0  0  0  0  0  0  0
  -28.9517   13.9119  -15.6834 H   0  0  0  0  0  0  0  0  0  0  0  0
  -27.9982   13.7106  -17.0096 H   0  0  0  0  0  0  0  0  0  0  0  0
  -29.4324   16.7503  -18.1550 H   0  0  0  0  0  0  0  0  0  0  0  0
  2  3  1  0  0  0  0
  2 10  1  0  0  0  0
  2  1  1  1  0  0  0
  3  4  1  0  0  0  0
  4  5  1  0  0  0  0
  4  9  1  0  0  0  0
  5  6  2  0  0  0  0
  5  7  1  0  0  0  0
  7  8  1  0  0  0  0
  7 11  1  0  0  0  0
  9 12  1  0  0  0  0
  9 13  1  0  0  0  0
 10 14  1  0  0  0  0
M  END
>  <CHROM.0>
-58.31637607,42.12194314,-71.33207727,-42.95051832,-58.72999296,-57.41032858
-167.76600758,-60.00969264,-169.04422579

>  <CHROM.1>
174.32710374,-171.82399487,144.58700708,-62.65851767,-100.43544348,-28.07690852
15.90692917,-16.35953018,-2.58279132,0.13385999,-2.92722378

>  <Name>
P90832059

>  <RI>
0

>  <Rbt.Current_Directory>
/home/fstefaniak/projects/zuza/docking/adenine/4TZX

>  <Rbt.Executable>
rbdock ($Id: //depot/dev/client3/rdock/2013.1/src/exe/rbdock.cxx#4 $)

>  <Rbt.Library>
libRbt.so (2013.1, Build901 2013/11/27)

>  <Rbt.Parameter_File>
/home/fstefaniak/progs/rDock//data/scripts/dock_solv.prm

>  <Rbt.Receptor>
4tzx.prm

>  <SCORE>
-47.2212

>  <SCORE.INTER>
-28.0768

>  <SCORE.INTER.CONST>
1

>  <SCORE.INTER.POLAR>
-3.93964

>  <SCORE.INTER.ROT>
4

>  <SCORE.INTER.SOLV>
12.0135

>  <SCORE.INTER.VDW>
-15.8569

>  <SCORE.INTER.norm>
-2.80768

>  <SCORE.INTRA>
0.284002

>  <SCORE.INTRA.DIHEDRAL>
-1.43722

>  <SCORE.INTRA.DIHEDRAL.0>
3.75292

>  <SCORE.INTRA.POLAR>
0.770221

>  <SCORE.INTRA.POLAR.0>
-0.977921

>  <SCORE.INTRA.REPUL>
0

>  <SCORE.INTRA.REPUL.0>
0

>  <SCORE.INTRA.SOLV>
-0.514421

>  <SCORE.INTRA.SOLV.lig_0>
-18.0346

>  <SCORE.INTRA.VDW>
-1.35893

>  <SCORE.INTRA.VDW.0>
0.4821

>  <SCORE.INTRA.norm>
0.0284002

>  <SCORE.RESTR>
0

>  <SCORE.RESTR.CAVITY>
0

>  <SCORE.RESTR.norm>
0

>  <SCORE.SYSTEM>
-19.4284

>  <SCORE.SYSTEM.CONST>
0

>  <SCORE.SYSTEM.DIHEDRAL>
6.67257

>  <SCORE.SYSTEM.POLAR>
-3.15027

>  <SCORE.SYSTEM.SOLV>
0.289952

>  <SCORE.SYSTEM.VDW>
-4.77221

>  <SCORE.SYSTEM.norm>
-1.94284

>  <SCORE.heavy>
10

>  <SCORE.norm>
-4.72212

$$$$
P90832059
 OpenBabel12072022113D
libRbt.so/2013.1/901 2013/11/27
 14 13  0  0  0  0  0  0  0  0999 V2000
  -31.2364   19.1914  -17.6325 C   0  0  0  0  0  0  0  0  0  0  0  0
  -30.4985   17.8620  -17.6081 C   0  0  2  0  0  0  0  0  0  0  0  0
  -29.5976   17.7425  -16.3686 C   0  0  0  0  0  0  0  0  0  0  0  0
  -29.4008   16.3416  -15.9759 N   0  0  0  0  0  0  0  0  0  0  0  0
  -28.1285   15.7601  -16.1098 C   0  0  0  0  0  0  0  0  0  0  0  0
  -27.1547   16.3460  -16.5694 O   0  0  0  0  0  0  0  0  0  0  0  0
  -28.0885   14.4540  -15.6586 N   0  0  0  0  0  0  0  0  0  0  0  0
  -27.6907   13.4013  -16.5589 C   0  0  0  0  0  0  0  0  0  0  0  0
  -30.3959   15.7523  -15.1382 N   0  0  0  0  0  0  0  0  0  0  0  0
  -29.7003   17.7837  -18.7953 O   0  0  0  0  0  0  0  0  0  0  0  0
  -28.8264   14.2379  -15.0067 H   0  0  0  0  0  0  0  0  0  0  0  0
  -30.8597   15.0154  -15.6800 H   0  0  0  0  0  0  0  0  0  0  0  0
  -31.0995   16.4665  -14.9415 H   0  0  0  0  0  0  0  0  0  0  0  0
  -29.2281   16.9268  -18.7285 H   0  0  0  0  0  0  0  0  0  0  0  0
  2  3  1  0  0  0  0
  2 10  1  0  0  0  0
  2  1  1  1  0  0  0
  3  4  1  0  0  0  0
  4  5  1  0  0  0  0
  4  9  1  0  0  0  0
  5  6  2  0  0  0  0
  5  7  1  0  0  0  0
  7  8  1  0  0  0  0
  7 11  1  0  0  0  0
  9 12  1  0  0  0  0
  9 13  1  0  0  0  0
 10 14  1  0  0  0  0
M  END
>  <CHROM.0>
-57.54315057,-52.25524629,-68.23641001,176.53090931,60.31268230,-60.81400743
-66.85893452,59.65068311,-168.80986757

>  <CHROM.1>
152.68202486,178.66414652,112.13368009,114.06487680,121.66135830,-29.20034373
16.45580279,-16.66162168,2.23789623,0.56462790,-0.80404544

>  <Name>
P90832059

>  <RI>
0

>  <Rbt.Current_Directory>
/home/fstefaniak/projects/zuza/docking/adenine/4TZX

>  <Rbt.Executable>
rbdock ($Id: //depot/dev/client3/rdock/2013.1/src/exe/rbdock.cxx#4 $)

>  <Rbt.Library>
libRbt.so (2013.1, Build901 2013/11/27)

>  <Rbt.Parameter_File>
/home/fstefaniak/progs/rDock//data/scripts/dock_solv.prm

>  <Rbt.Receptor>
4tzx.prm

>  <SCORE>
-45.5777

>  <SCORE.INTER>
-30.6798

>  <SCORE.INTER.CONST>
1

>  <SCORE.INTER.POLAR>
-4.07342

>  <SCORE.INTER.ROT>
4

>  <SCORE.INTER.SOLV>
14.3804

>  <SCORE.INTER.VDW>
-17.9352

>  <SCORE.INTER.norm>
-3.06798

>  <SCORE.INTRA>
1.85685

>  <SCORE.INTRA.DIHEDRAL>
0.957026

>  <SCORE.INTRA.DIHEDRAL.0>
3.75292

>  <SCORE.INTRA.POLAR>
0.800134

>  <SCORE.INTRA.POLAR.0>
-0.977921

>  <SCORE.INTRA.REPUL>
0

>  <SCORE.INTRA.REPUL.0>
0

>  <SCORE.INTRA.SOLV>
-0.719626

>  <SCORE.INTRA.SOLV.lig_0>
-18.0346

>  <SCORE.INTRA.VDW>
-0.982303

>  <SCORE.INTRA.VDW.0>
0.4821

>  <SCORE.INTRA.norm>
0.185685

>  <SCORE.RESTR>
0

>  <SCORE.RESTR.CAVITY>
0

>  <SCORE.RESTR.norm>
0

>  <SCORE.SYSTEM>
-16.7547

>  <SCORE.SYSTEM.CONST>
0

>  <SCORE.SYSTEM.DIHEDRAL>
3.56618

>  <SCORE.SYSTEM.POLAR>
-2.47216

>  <SCORE.SYSTEM.SOLV>
-0.361762

>  <SCORE.SYSTEM.VDW>
-3.99743

>  <SCORE.SYSTEM.norm>
-1.67547

>  <SCORE.heavy>
10

>  <SCORE.norm>
-4.55777

$$$$
P90832059
 OpenBabel12072022113D
libRbt.so/2013.1/901 2013/11/27
 14 13  0  0  0  0  0  0  0  0999 V2000
  -30.9852   19.3323  -17.6864 C   0  0  0  0  0  0  0  0  0  0  0  0
  -30.5777   17.8816  -17.4822 C   0  0  2  0  0  0  0  0  0  0  0  0
  -29.5859   17.7356  -16.3170 C   0  0  0  0  0  0  0  0  0  0  0  0
  -29.3836   16.3280  -15.9519 N   0  0  0  0  0  0  0  0  0  0  0  0
  -28.1081   15.7555  -16.0933 C   0  0  0  0  0  0  0  0  0  0  0  0
  -27.1357   16.3551  -16.5378 O   0  0  0  0  0  0  0  0  0  0  0  0
  -28.0632   14.4408  -15.6683 N   0  0  0  0  0  0  0  0  0  0  0  0
  -27.6481   13.4095  -16.5854 C   0  0  0  0  0  0  0  0  0  0  0  0
  -30.3785   15.7173  -15.1296 N   0  0  0  0  0  0  0  0  0  0  0  0
  -29.9687   17.4240  -18.6957 O   0  0  0  0  0  0  0  0  0  0  0  0
  -28.8064   14.2061  -15.0289 H   0  0  0  0  0  0  0  0  0  0  0  0
  -30.8377   14.9898  -15.6879 H   0  0  0  0  0  0  0  0  0  0  0  0
  -31.0858   16.4243  -14.9202 H   0  0  0  0  0  0  0  0  0  0  0  0
  -30.7091   17.3273  -19.3313 H   0  0  0  0  0  0  0  0  0  0  0  0
  2  3  1  0  0  0  0
  2 10  1  0  0  0  0
  2  1  1  6  0  0  0
  3  4  1  0  0  0  0
  4  5  1  0  0  0  0
  4  9  1  0  0  0  0
  5  6  2  0  0  0  0
  5  7  1  0  0  0  0
  7  8  1  0  0  0  0
  7 11  1  0  0  0  0
  9 12  1  0  0  0  0
  9 13  1  0  0  0  0
 10 14  1  0  0  0  0
M  END
>  <CHROM.0>
-63.05706390,-61.69162646,-51.18223241,54.34331264,-60.58262701,-66.00757636
-64.40072792,-60.39446922,-168.40278060

>  <CHROM.1>
169.30427062,-72.63517712,116.96414670,114.01206118,122.10819673,-29.20572829
16.42979479,-16.64018441,2.26881363,0.59719896,-0.83801468

>  <Name>
P90832059

>  <RI>
0

>  <Rbt.Current_Directory>
/home/fstefaniak/projects/zuza/docking/adenine/4TZX

>  <Rbt.Executable>
rbdock ($Id: //depot/dev/client3/rdock/2013.1/src/exe/rbdock.cxx#4 $)

>  <Rbt.Library>
libRbt.so (2013.1, Build901 2013/11/27)

>  <Rbt.Parameter_File>
/home/fstefaniak/progs/rDock//data/scripts/dock_solv.prm

>  <Rbt.Receptor>
4tzx.prm

>  <SCORE>
-43.8189

>  <SCORE.INTER>
-27.4652

>  <SCORE.INTER.CONST>
1

>  <SCORE.INTER.POLAR>
-3.4156

>  <SCORE.INTER.ROT>
4

>  <SCORE.INTER.SOLV>
14.3129

>  <SCORE.INTER.VDW>
-17.9624

>  <SCORE.INTER.norm>
-2.74652

>  <SCORE.INTRA>
1.37913

>  <SCORE.INTRA.DIHEDRAL>
-0.255742

>  <SCORE.INTRA.DIHEDRAL.0>
3.75292

>  <SCORE.INTRA.POLAR>
0.798034

>  <SCORE.INTRA.POLAR.0>
-0.977921

>  <SCORE.INTRA.REPUL>
0

>  <SCORE.INTRA.REPUL.0>
0

>  <SCORE.INTRA.SOLV>
-0.676497

>  <SCORE.INTRA.SOLV.lig_0>
-18.0346

>  <SCORE.INTRA.VDW>
-0.868062

>  <SCORE.INTRA.VDW.0>
0.4821

>  <SCORE.INTRA.norm>
0.137913

>  <SCORE.RESTR>
0

>  <SCORE.RESTR.CAVITY>
0

>  <SCORE.RESTR.norm>
0

>  <SCORE.SYSTEM>
-17.7328

>  <SCORE.SYSTEM.CONST>
0

>  <SCORE.SYSTEM.DIHEDRAL>
3.52485

>  <SCORE.SYSTEM.POLAR>
-2.51419

>  <SCORE.SYSTEM.SOLV>
0.120504

>  <SCORE.SYSTEM.VDW>
-4.65633

>  <SCORE.SYSTEM.norm>
-1.77328

>  <SCORE.heavy>
10

>  <SCORE.norm>
-4.38189

$$$$
P91593447
 OpenBabel12072022113D
libRbt.so/2013.1/901 2013/11/27
 10  9  0  0  0  0  0  0  0  0999 V2000
  -31.3515   17.8536  -15.5935 C   0  0  0  0  0  0  0  0  0  0  0  0
  -30.1466   18.0436  -16.5190 C   0  0  2  0  0  0  0  0  0  0  0  0
  -30.4813   18.9237  -17.7376 C   0  0  0  0  0  0  0  0  0  0  0  0
  -31.8316   18.6376  -18.2401 C   0  0  0  0  0  0  0  0  0  0  0  0
  -32.9040   18.4062  -18.6181 N   0  0  0  0  0  0  0  0  0  0  0  0
  -29.5735   16.7465  -16.8922 N   0  0  0  0  0  0  0  0  0  0  0  0
  -29.2629   15.7629  -15.9811 C   0  0  0  0  0  0  0  0  0  0  0  0
  -29.5206   15.8407  -14.7850 O   0  0  0  0  0  0  0  0  0  0  0  0
  -28.5998   14.5495  -16.5764 C   0  0  0  0  0  0  0  0  0  0  0  0
  -29.2260   16.6491  -17.8386 H   0  0  0  0  0  0  0  0  0  0  0  0
  2  3  1  0  0  0  0
  2  6  1  0  0  0  0
  2  1  1  6  0  0  0
  3  4  1  0  0  0  0
  4  5  3  0  0  0  0
  6  7  1  0  0  0  0
  6 10  1  0  0  0  0
  7  8  2  0  0  0  0
  7  9  1  0  0  0  0
M  END
>  <CHROM.0>
-59.60955570,-62.65527248,-64.26610176,-42.83087598,-55.91700526,-59.58112149
-66.46405135,-58.95231470,-168.71022755

>  <CHROM.1>
-38.44581694,-49.66351832,-30.37510977,17.14755676,-16.72880116,2.72908421
0.87198633,-1.64736825

>  <Name>
P91593447

>  <RI>
0

>  <Rbt.Current_Directory>
/home/fstefaniak/projects/zuza/docking/adenine/4TZX

>  <Rbt.Executable>
rbdock ($Id: //depot/dev/client3/rdock/2013.1/src/exe/rbdock.cxx#4 $)

>  <Rbt.Library>
libRbt.so (2013.1, Build901 2013/11/27)

>  <Rbt.Parameter_File>
/home/fstefaniak/progs/rDock//data/scripts/dock_solv.prm

>  <Rbt.Receptor>
4tzx.prm

>  <SCORE>
-45.2671

>  <SCORE.INTER>
-27.2544

>  <SCORE.INTER.CONST>
1

>  <SCORE.INTER.POLAR>
-3.14716

>  <SCORE.INTER.ROT>
2

>  <SCORE.INTER.SOLV>
10.1453

>  <SCORE.INTER.VDW>
-15.9942

>  <SCORE.INTER.norm>
-3.02826

>  <SCORE.INTRA>
3.11146

>  <SCORE.INTRA.DIHEDRAL>
0.861427

>  <SCORE.INTRA.DIHEDRAL.0>
1.57349

>  <SCORE.INTRA.POLAR>
0

>  <SCORE.INTRA.POLAR.0>
0

>  <SCORE.INTRA.REPUL>
0

>  <SCORE.INTRA.REPUL.0>
0

>  <SCORE.INTRA.SOLV>
0.10386

>  <SCORE.INTRA.SOLV.lig_0>
-12.5798

>  <SCORE.INTRA.VDW>
2.62881

>  <SCORE.INTRA.VDW.0>
0.0535419

>  <SCORE.INTRA.norm>
0.345718

>  <SCORE.RESTR>
0

>  <SCORE.RESTR.CAVITY>
0

>  <SCORE.RESTR.norm>
0

>  <SCORE.SYSTEM>
-21.1242

>  <SCORE.SYSTEM.CONST>
0

>  <SCORE.SYSTEM.DIHEDRAL>
4.39401

>  <SCORE.SYSTEM.POLAR>
-3.06493

>  <SCORE.SYSTEM.SOLV>
0.197426

>  <SCORE.SYSTEM.VDW>
-5.39687

>  <SCORE.SYSTEM.norm>
-2.34714

>  <SCORE.heavy>
9

>  <SCORE.norm>
-5.02968

$$$$
P91593447
 OpenBabel12072022113D
libRbt.so/2013.1/901 2013/11/27
 10  9  0  0  0  0  0  0  0  0999 V2000
  -31.3425   17.8597  -15.6041 C   0  0  0  0  0  0  0  0  0  0  0  0
  -30.1413   18.0663  -16.5306 C   0  0  2  0  0  0  0  0  0  0  0  0
  -30.4916   18.9335  -17.7541 C   0  0  0  0  0  0  0  0  0  0  0  0
  -31.8518   18.6490  -18.2302 C   0  0  0  0  0  0  0  0  0  0  0  0
  -32.9317   18.4191  -18.5873 N   0  0  0  0  0  0  0  0  0  0  0  0
  -29.5448   16.7777  -16.8968 N   0  0  0  0  0  0  0  0  0  0  0  0
  -29.2314   15.7985  -15.9819 C   0  0  0  0  0  0  0  0  0  0  0  0
  -29.5052   15.8723  -14.7892 O   0  0  0  0  0  0  0  0  0  0  0  0
  -28.5434   14.5950  -16.5690 C   0  0  0  0  0  0  0  0  0  0  0  0
  -29.1840   16.6855  -17.8388 H   0  0  0  0  0  0  0  0  0  0  0  0
  2  3  1  0  0  0  0
  2  6  1  0  0  0  0
  2  1  1  6  0  0  0
  3  4  1  0  0  0  0
  4  5  3  0  0  0  0
  6  7  1  0  0  0  0
  6 10  1  0  0  0  0
  7  8  2  0  0  0  0
  7  9  1  0  0  0  0
M  END
>  <CHROM.0>
-59.73733715,-62.22809831,-64.89226217,-43.21117268,-53.81008902,-65.63852624
-67.30533708,-57.94181936,-168.94888333

>  <CHROM.1>
-36.73946849,-48.85081798,-30.36445217,17.17078274,-16.72896083,2.70261459
0.84575031,-1.60705318

>  <Name>
P91593447

>  <RI>
0

>  <Rbt.Current_Directory>
/home/fstefaniak/projects/zuza/docking/adenine/4TZX

>  <Rbt.Executable>
rbdock ($Id: //depot/dev/client3/rdock/2013.1/src/exe/rbdock.cxx#4 $)

>  <Rbt.Library>
libRbt.so (2013.1, Build901 2013/11/27)

>  <Rbt.Parameter_File>
/home/fstefaniak/progs/rDock//data/scripts/dock_solv.prm

>  <Rbt.Receptor>
4tzx.prm

>  <SCORE>
-45.2248

>  <SCORE.INTER>
-27.506

>  <SCORE.INTER.CONST>
1

>  <SCORE.INTER.POLAR>
-3.15945

>  <SCORE.INTER.ROT>
2

>  <SCORE.INTER.SOLV>
10.1213

>  <SCORE.INTER.VDW>
-16.1129

>  <SCORE.INTER.norm>
-3.05622

>  <SCORE.INTRA>
3.427

>  <SCORE.INTRA.DIHEDRAL>
1.06098

>  <SCORE.INTRA.DIHEDRAL.0>
1.57349

>  <SCORE.INTRA.POLAR>
0

>  <SCORE.INTRA.POLAR.0>
0

>  <SCORE.INTRA.REPUL>
0

>  <SCORE.INTRA.REPUL.0>
0

>  <SCORE.INTRA.SOLV>
0.0964326

>  <SCORE.INTRA.SOLV.lig_0>
-12.5798

>  <SCORE.INTRA.VDW>
2.8483

>  <SCORE.INTRA.VDW.0>
0.0535419

>  <SCORE.INTRA.norm>
0.380778

>  <SCORE.RESTR>
0

>  <SCORE.RESTR.CAVITY>
0

>  <SCORE.RESTR.norm>
0

>  <SCORE.SYSTEM>
-21.1458

>  <SCORE.SYSTEM.CONST>
0

>  <SCORE.SYSTEM.DIHEDRAL>
4.63874

>  <SCORE.SYSTEM.POLAR>
-3.06655

>  <SCORE.SYSTEM.SOLV>
0.184148

>  <SCORE.SYSTEM.VDW>
-5.48301

>  <SCORE.SYSTEM.norm>
-2.34953

>  <SCORE.heavy>
9

>  <SCORE.norm>
-5.02497

$$$$
P91593447
 OpenBabel12072022113D
libRbt.so/2013.1/901 2013/11/27
 10  9  0  0  0  0  0  0  0  0999 V2000
  -31.3069   17.8725  -15.6059 C   0  0  0  0  0  0  0  0  0  0  0  0
  -30.1251   18.0290  -16.5668 C   0  0  2  0  0  0  0  0  0  0  0  0
  -30.4825   18.8867  -17.7949 C   0  0  0  0  0  0  0  0  0  0  0  0
  -31.8594   18.6279  -18.2364 C   0  0  0  0  0  0  0  0  0  0  0  0
  -32.9522   18.4188  -18.5660 N   0  0  0  0  0  0  0  0  0  0  0  0
  -29.5763   16.7177  -16.9271 N   0  0  0  0  0  0  0  0  0  0  0  0
  -29.2789   15.7396  -16.0056 C   0  0  0  0  0  0  0  0  0  0  0  0
  -29.5301   15.8360  -14.8096 O   0  0  0  0  0  0  0  0  0  0  0  0
  -28.6396   14.5079  -16.5893 C   0  0  0  0  0  0  0  0  0  0  0  0
  -29.2346   16.6031  -17.8737 H   0  0  0  0  0  0  0  0  0  0  0  0
  2  3  1  0  0  0  0
  2  6  1  0  0  0  0
  2  1  1  6  0  0  0
  3  4  1  0  0  0  0
  4  5  3  0  0  0  0
  6  7  1  0  0  0  0
  6 10  1  0  0  0  0
  7  8  2  0  0  0  0
  7  9  1  0  0  0  0
M  END
>  <CHROM.0>
-60.58030302,-62.54116042,-70.91931116,-43.77225299,-173.35229173,-62.70593645
-170.68853343,-56.36824034,-168.08103261

>  <CHROM.1>
-37.14370820,-48.22469154,-30.38358381,17.13331905,-16.74659013,2.74417933
0.87665428,-1.65640310

>  <Name>
P91593447

>  <RI>
0

>  <Rbt.Current_Directory>
/home/fstefaniak/projects/zuza/docking/adenine/4TZX

>  <Rbt.Executable>
rbdock ($Id: //depot/dev/client3/rdock/2013.1/src/exe/rbdock.cxx#4 $)

>  <Rbt.Library>
libRbt.so (2013.1, Build901 2013/11/27)

>  <Rbt.Parameter_File>
/home/fstefaniak/progs/rDock//data/scripts/dock_solv.prm

>  <Rbt.Receptor>
4tzx.prm

>  <SCORE>
-44.7984

>  <SCORE.INTER>
-27.5863

>  <SCORE.INTER.CONST>
1

>  <SCORE.INTER.POLAR>
-3.14661

>  <SCORE.INTER.ROT>
2

>  <SCORE.INTER.SOLV>
10.2064

>  <SCORE.INTER.VDW>
-16.2376

>  <SCORE.INTER.norm>
-3.06515

>  <SCORE.INTRA>
3.42853

>  <SCORE.INTRA.DIHEDRAL>
1.00341

>  <SCORE.INTRA.DIHEDRAL.0>
1.57349

>  <SCORE.INTRA.POLAR>
0

>  <SCORE.INTRA.POLAR.0>
0

>  <SCORE.INTRA.REPUL>
0

>  <SCORE.INTRA.REPUL.0>
0

>  <SCORE.INTRA.SOLV>
0.100849

>  <SCORE.INTRA.SOLV.lig_0>
-12.5798

>  <SCORE.INTRA.VDW>
2.8764

>  <SCORE.INTRA.VDW.0>
0.0535419

>  <SCORE.INTRA.norm>
0.380948

>  <SCORE.RESTR>
0

>  <SCORE.RESTR.CAVITY>
0

>  <SCORE.RESTR.norm>
0

>  <SCORE.SYSTEM>
-20.6406

>  <SCORE.SYSTEM.CONST>
0

>  <SCORE.SYSTEM.DIHEDRAL>
5.17806

>  <SCORE.SYSTEM.POLAR>
-3.02538

>  <SCORE.SYSTEM.SOLV>
-0.0288925

>  <SCORE.SYSTEM.VDW>
-5.39219

>  <SCORE.SYSTEM.norm>
-2.2934

>  <SCORE.heavy>
9

>  <SCORE.norm>
-4.9776

$$$$
P92124050
 OpenBabel12072022113D
libRbt.so/2013.1/901 2013/11/27
 14 14  0  0  0  0  0  0  0  0999 V2000
  -29.0319   15.2765  -16.7567 C   0  0  0  0  0  0  0  0  0  0  0  0
  -28.5927   13.9783  -16.0830 C   0  0  0  0  0  0  0  0  0  0  0  0
  -27.4078   13.2480  -16.7707 C   0  0  2  0  0  0  0  0  0  0  0  0
  -26.8762   12.1338  -15.8376 C   0  0  0  0  0  0  0  0  0  0  0  0
  -25.3817   12.3786  -15.6830 C   0  0  0  0  0  0  0  0  0  0  0  0
  -25.0460   13.3261  -16.7632 N   0  3  0  0  0  0  0  0  0  0  0  0
  -24.1316   13.7771  -16.7388 H   0  0  0  0  0  0  0  0  0  0  0  0
  -25.0505   12.7322  -17.6469 H   0  0  0  0  0  0  0  0  0  0  0  0
  -26.2294   14.1961  -16.9700 C   0  0  0  0  0  0  0  0  0  0  0  0
  -27.8577   12.6537  -18.1257 C   0  0  0  0  0  0  0  0  0  0  0  0
  -27.8263   13.3390  -19.1531 O   0  0  0  0  0  0  0  0  0  0  0  0
  -28.2936   11.3521  -18.2336 N   0  0  0  0  0  0  0  0  0  0  0  0
  -28.1376   10.5775  -19.3617 O   0  5  0  0  0  0  0  0  0  0  0  0
  -28.3469   10.8353  -17.3561 H   0  0  0  0  0  0  0  0  0  0  0  0
  1  2  1  0  0  0  0
  3  2  1  1  0  0  0
  3  4  1  0  0  0  0
  3  9  1  0  0  0  0
  3 10  1  0  0  0  0
  4  5  1  0  0  0  0
  5  6  1  0  0  0  0
  6  7  1  0  0  0  0
  6  8  1  0  0  0  0
  6  9  1  0  0  0  0
 10 11  2  0  0  0  0
 10 12  1  0  0  0  0
 12 13  1  0  0  0  0
 12 14  1  0  0  0  0
M  CHG  2   6   1  13  -1
M  END
>  <CHROM.0>
-57.81248250,-37.09259416,-70.05788676,-42.37741836,-53.77683409,-60.66495031
-64.10185164,-171.03961938,-168.92688820

>  <CHROM.1>
168.09516531,86.49266189,-149.39968530,-27.32565095,12.93148545,-17.29073628
1.01557884,-0.51207101,0.60636287

>  <Name>
P92124050

>  <RI>
0

>  <Rbt.Current_Directory>
/home/fstefaniak/projects/zuza/docking/adenine/4TZX

>  <Rbt.Executable>
rbdock ($Id: //depot/dev/client3/rdock/2013.1/src/exe/rbdock.cxx#4 $)

>  <Rbt.Library>
libRbt.so (2013.1, Build901 2013/11/27)

>  <Rbt.Parameter_File>
/home/fstefaniak/progs/rDock//data/scripts/dock_solv.prm

>  <Rbt.Receptor>
4tzx.prm

>  <SCORE>
-41.3006

>  <SCORE.INTER>
-20.5809

>  <SCORE.INTER.CONST>
1

>  <SCORE.INTER.POLAR>
-3.88268

>  <SCORE.INTER.ROT>
3

>  <SCORE.INTER.SOLV>
18.9675

>  <SCORE.INTER.VDW>
-12.7008

>  <SCORE.INTER.norm>
-1.87099

>  <SCORE.INTRA>
-1.47195

>  <SCORE.INTRA.DIHEDRAL>
2.66111

>  <SCORE.INTRA.DIHEDRAL.0>
1.22126

>  <SCORE.INTRA.POLAR>
0.603385

>  <SCORE.INTRA.POLAR.0>
-0.603385

>  <SCORE.INTRA.REPUL>
0

>  <SCORE.INTRA.REPUL.0>
0

>  <SCORE.INTRA.SOLV>
-9.77409

>  <SCORE.INTRA.SOLV.lig_0>
-46.3245

>  <SCORE.INTRA.VDW>
0.0330307

>  <SCORE.INTRA.VDW.0>
1.16752

>  <SCORE.INTRA.norm>
-0.133813

>  <SCORE.RESTR>
0.0168394

>  <SCORE.RESTR.CAVITY>
0.0168394

>  <SCORE.RESTR.norm>
0.00153086

>  <SCORE.SYSTEM>
-19.2646

>  <SCORE.SYSTEM.CONST>
0

>  <SCORE.SYSTEM.DIHEDRAL>
7.38028

>  <SCORE.SYSTEM.POLAR>
-3.07592

>  <SCORE.SYSTEM.SOLV>
0.14605

>  <SCORE.SYSTEM.VDW>
-5.09877

>  <SCORE.SYSTEM.norm>
-1.75133

>  <SCORE.heavy>
11

>  <SCORE.norm>
-3.7546

$$$$
P92124050
 OpenBabel12072022113D
libRbt.so/2013.1/901 2013/11/27
 14 14  0  0  0  0  0  0  0  0999 V2000
  -27.4351   11.4160  -15.0117 C   0  0  0  0  0  0  0  0  0  0  0  0
  -26.3337   12.2588  -15.6511 C   0  0  0  0  0  0  0  0  0  0  0  0
  -26.8311   13.3758  -16.6077 C   0  0  2  0  0  0  0  0  0  0  0  0
  -25.6668   14.3471  -16.9172 C   0  0  0  0  0  0  0  0  0  0  0  0
  -26.1695   15.7435  -16.5784 C   0  0  0  0  0  0  0  0  0  0  0  0
  -27.6328   15.5940  -16.4611 N   0  3  0  0  0  0  0  0  0  0  0  0
  -28.1629   16.3652  -16.0557 H   0  0  0  0  0  0  0  0  0  0  0  0
  -27.9716   15.5094  -17.4670 H   0  0  0  0  0  0  0  0  0  0  0  0
  -27.8959   14.2338  -15.9313 C   0  0  0  0  0  0  0  0  0  0  0  0
  -27.3847   12.7574  -17.9126 C   0  0  0  0  0  0  0  0  0  0  0  0
  -27.6699   13.4762  -18.8761 O   0  0  0  0  0  0  0  0  0  0  0  0
  -27.5666   11.3993  -18.0469 N   0  0  0  0  0  0  0  0  0  0  0  0
  -28.7986   10.7934  -18.1584 O   0  5  0  0  0  0  0  0  0  0  0  0
  -26.7945   10.8963  -18.4835 H   0  0  0  0  0  0  0  0  0  0  0  0
  1  2  1  0  0  0  0
  3  2  1  1  0  0  0
  3  4  1  0  0  0  0
  3  9  1  0  0  0  0
  3 10  1  0  0  0  0
  4  5  1  0  0  0  0
  5  6  1  0  0  0  0
  6  7  1  0  0  0  0
  6  8  1  0  0  0  0
  6  9  1  0  0  0  0
 10 11  2  0  0  0  0
 10 12  1  0  0  0  0
 12 13  1  0  0  0  0
 12 14  1  0  0  0  0
M  CHG  2   6   1  13  -1
M  END
>  <CHROM.0>
-61.18083938,-40.49677087,-60.86314149,-42.69764814,-56.90844825,177.30478870
-70.41654849,-175.91466680,-169.25141579

>  <CHROM.1>
166.81431180,-170.54238452,112.58265830,-27.25439542,13.20290013,-16.94975184
-2.49323671,-1.19721663,-0.62120835

>  <Name>
P92124050

>  <RI>
0

>  <Rbt.Current_Directory>
/home/fstefaniak/projects/zuza/docking/adenine/4TZX

>  <Rbt.Executable>
rbdock ($Id: //depot/dev/client3/rdock/2013.1/src/exe/rbdock.cxx#4 $)

>  <Rbt.Library>
libRbt.so (2013.1, Build901 2013/11/27)

>  <Rbt.Parameter_File>
/home/fstefaniak/progs/rDock//data/scripts/dock_solv.prm

>  <Rbt.Receptor>
4tzx.prm

>  <SCORE>
-38.748

>  <SCORE.INTER>
-19.7691

>  <SCORE.INTER.CONST>
1

>  <SCORE.INTER.POLAR>
-3.46184

>  <SCORE.INTER.ROT>
3

>  <SCORE.INTER.SOLV>
18.1939

>  <SCORE.INTER.VDW>
-13.3045

>  <SCORE.INTER.norm>
-1.79719

>  <SCORE.INTRA>
0.113935

>  <SCORE.INTRA.DIHEDRAL>
4.45197

>  <SCORE.INTRA.DIHEDRAL.0>
1.22126

>  <SCORE.INTRA.POLAR>
0.603385

>  <SCORE.INTRA.POLAR.0>
-0.603385

>  <SCORE.INTRA.REPUL>
0

>  <SCORE.INTRA.REPUL.0>
0

>  <SCORE.INTRA.SOLV>
-7.56315

>  <SCORE.INTRA.SOLV.lig_0>
-46.3245

>  <SCORE.INTRA.VDW>
-0.381986

>  <SCORE.INTRA.VDW.0>
1.16752

>  <SCORE.INTRA.norm>
0.0103577

>  <SCORE.RESTR>
0.365481

>  <SCORE.RESTR.CAVITY>
0.365481

>  <SCORE.RESTR.norm>
0.0332256

>  <SCORE.SYSTEM>
-19.4583

>  <SCORE.SYSTEM.CONST>
0

>  <SCORE.SYSTEM.DIHEDRAL>
6.30242

>  <SCORE.SYSTEM.POLAR>
-3.05193

>  <SCORE.SYSTEM.SOLV>
0.00196821

>  <SCORE.SYSTEM.VDW>
-4.90057

>  <SCORE.SYSTEM.norm>
-1.76894

>  <SCORE.heavy>
11

>  <SCORE.norm>
-3.52254

$$$$
P92124050
 OpenBabel12072022113D
libRbt.so/2013.1/901 2013/11/27
 14 14  0  0  0  0  0  0  0  0999 V2000
  -31.8431   17.9210  -13.5948 C   0  0  0  0  0  0  0  0  0  0  0  0
  -30.3519   17.8405  -13.9141 C   0  0  0  0  0  0  0  0  0  0  0  0
  -30.0115   17.3698  -15.3539 C   0  0  2  0  0  0  0  0  0  0  0  0
  -30.4716   15.9041  -15.5404 C   0  0  0  0  0  0  0  0  0  0  0  0
  -29.2560   15.1307  -16.0322 C   0  0  0  0  0  0  0  0  0  0  0  0
  -28.3002   16.1712  -16.4581 N   0  3  0  0  0  0  0  0  0  0  0  0
  -27.3391   15.8897  -16.6510 H   0  0  0  0  0  0  0  0  0  0  0  0
  -28.6884   16.5236  -17.3848 H   0  0  0  0  0  0  0  0  0  0  0  0
  -28.5019   17.3440  -15.5728 C   0  0  0  0  0  0  0  0  0  0  0  0
  -30.6922   18.2898  -16.3941 C   0  0  0  0  0  0  0  0  0  0  0  0
  -30.0130   18.9771  -17.1638 O   0  0  0  0  0  0  0  0  0  0  0  0
  -32.0627   18.3652  -16.5032 N   0  0  0  0  0  0  0  0  0  0  0  0
  -32.7219   18.8856  -17.5949 O   0  5  0  0  0  0  0  0  0  0  0  0
  -32.5820   17.6632  -15.9766 H   0  0  0  0  0  0  0  0  0  0  0  0
  1  2  1  0  0  0  0
  3  2  1  1  0  0  0
  3  4  1  0  0  0  0
  3  9  1  0  0  0  0
  3 10  1  0  0  0  0
  4  5  1  0  0  0  0
  5  6  1  0  0  0  0
  6  7  1  0  0  0  0
  6  8  1  0  0  0  0
  6  9  1  0  0  0  0
 10 11  2  0  0  0  0
 10 12  1  0  0  0  0
 12 13  1  0  0  0  0
 12 14  1  0  0  0  0
M  CHG  2   6   1  13  -1
M  END
>  <CHROM.0>
-59.26725201,-63.44721578,-66.84187212,-43.36760904,-54.47622565,-61.65415943
-65.52362542,-58.41063706,-169.06917847

>  <CHROM.1>
-65.30962465,115.94555969,-163.06903708,-30.40268319,17.48790506,-15.86850641
2.78827922,0.61898852,-1.27644137

>  <Name>
P92124050

>  <RI>
0

>  <Rbt.Current_Directory>
/home/fstefaniak/projects/zuza/docking/adenine/4TZX

>  <Rbt.Executable>
rbdock ($Id: //depot/dev/client3/rdock/2013.1/src/exe/rbdock.cxx#4 $)

>  <Rbt.Library>
libRbt.so (2013.1, Build901 2013/11/27)

>  <Rbt.Parameter_File>
/home/fstefaniak/progs/rDock//data/scripts/dock_solv.prm

>  <Rbt.Receptor>
4tzx.prm

>  <SCORE>
-36.8265

>  <SCORE.INTER>
-13.3798

>  <SCORE.INTER.CONST>
1

>  <SCORE.INTER.POLAR>
-2.82719

>  <SCORE.INTER.ROT>
3

>  <SCORE.INTER.SOLV>
27.6455

>  <SCORE.INTER.VDW>
-14.3111

>  <SCORE.INTER.norm>
-1.21634

>  <SCORE.INTRA>
-2.28854

>  <SCORE.INTRA.DIHEDRAL>
-0.605861

>  <SCORE.INTRA.DIHEDRAL.0>
1.22126

>  <SCORE.INTRA.POLAR>
0.603385

>  <SCORE.INTRA.POLAR.0>
-0.603385

>  <SCORE.INTRA.REPUL>
0

>  <SCORE.INTRA.REPUL.0>
0

>  <SCORE.INTRA.SOLV>
-9.01225

>  <SCORE.INTRA.SOLV.lig_0>
-46.3245

>  <SCORE.INTRA.VDW>
0.469005

>  <SCORE.INTRA.VDW.0>
1.16752

>  <SCORE.INTRA.norm>
-0.208049

>  <SCORE.RESTR>
0

>  <SCORE.RESTR.CAVITY>
0

>  <SCORE.RESTR.norm>
0

>  <SCORE.SYSTEM>
-21.1582

>  <SCORE.SYSTEM.CONST>
0

>  <SCORE.SYSTEM.DIHEDRAL>
4.4672

>  <SCORE.SYSTEM.POLAR>
-3.05802

>  <SCORE.SYSTEM.SOLV>
0.193412

>  <SCORE.SYSTEM.VDW>
-5.46562

>  <SCORE.SYSTEM.norm>
-1.92347

>  <SCORE.heavy>
11

>  <SCORE.norm>
-3.34787

$$$$
P92298492
 OpenBabel12072022113D
libRbt.so/2013.1/901 2013/11/27
 14 15  0  0  0  0  0  0  0  0999 V2000
  -30.4389   19.2060  -18.6340 C   0  0  0  0  0  0  0  0  0  0  0  0
  -31.6039   19.0515  -17.6619 C   0  0  0  0  0  0  0  0  0  0  0  0
  -31.3006   17.7817  -16.8517 C   0  0  1  0  0  0  0  0  0  0  0  0
  -30.1810   17.0325  -17.6385 C   0  0  1  0  0  0  0  0  0  0  0  0
  -30.0614   17.7706  -18.9686 C   0  0  0  0  0  0  0  0  0  0  0  0
  -28.8544   17.0577  -16.9468 N   0  3  0  0  0  0  0  0  0  0  0  0
  -28.8008   16.3229  -16.2064 H   0  0  0  0  0  0  0  0  0  0  0  0
  -28.1403   16.6334  -17.5876 H   0  0  0  0  0  0  0  0  0  0  0  0
  -28.4984   17.9457  -16.5970 H   0  0  0  0  0  0  0  0  0  0  0  0
  -30.8370   18.0232  -15.4594 C   0  0  0  0  0  0  0  0  0  0  0  0
  -31.3829   19.0678  -14.7941 N   0  0  0  0  0  0  0  0  0  0  0  0
  -31.6049   18.5967  -13.5478 N   0  5  0  0  0  0  0  0  0  0  0  0
  -31.1320   17.3379  -13.4526 N   0  0  0  0  0  0  0  0  0  0  0  0
  -30.6122   16.9641  -14.6422 N   0  0  0  0  0  0  0  0  0  0  0  0
  1  2  1  0  0  0  0
  1  5  1  0  0  0  0
  2  3  1  0  0  0  0
  3 10  1  1  0  0  0
  3  4  1  0  0  0  0
  4  5  1  0  0  0  0
  4  6  1  1  0  0  0
  6  7  1  0  0  0  0
  6  8  1  0  0  0  0
  6  9  1  0  0  0  0
 10 11  2  0  0  0  0
 10 14  1  0  0  0  0
 11 12  1  0  0  0  0
 12 13  1  0  0  0  0
 13 14  2  0  0  0  0
M  CHG  2   6   1  12  -1
M  END
>  <CHROM.0>
-61.79007126,-65.03202647,-64.41167600,-42.03877331,62.03003176,-66.04452345
-67.03846678,-61.60755923,-168.68067449

>  <CHROM.1>
35.97547226,81.57857764,-30.68213500,17.97714132,-16.24517235,1.22634522
0.83627102,-1.28298076

>  <Name>
P92298492

>  <RI>
0

>  <Rbt.Current_Directory>
/home/fstefaniak/projects/zuza/docking/adenine/4TZX

>  <Rbt.Executable>
rbdock ($Id: //depot/dev/client3/rdock/2013.1/src/exe/rbdock.cxx#4 $)

>  <Rbt.Library>
libRbt.so (2013.1, Build901 2013/11/27)

>  <Rbt.Parameter_File>
/home/fstefaniak/progs/rDock//data/scripts/dock_solv.prm

>  <Rbt.Receptor>
4tzx.prm

>  <SCORE>
-51.3674

>  <SCORE.INTER>
-28.905

>  <SCORE.INTER.CONST>
1

>  <SCORE.INTER.POLAR>
-3.94975

>  <SCORE.INTER.ROT>
1

>  <SCORE.INTER.SOLV>
17.5965

>  <SCORE.INTER.VDW>
-16.2363

>  <SCORE.INTER.norm>
-2.62773

>  <SCORE.INTRA>
-2.15152

>  <SCORE.INTRA.DIHEDRAL>
0.464963

>  <SCORE.INTRA.DIHEDRAL.0>
0.390423

>  <SCORE.INTRA.POLAR>
0.0345576

>  <SCORE.INTRA.POLAR.0>
-0.0498415

>  <SCORE.INTRA.REPUL>
0

>  <SCORE.INTRA.REPUL.0>
0

>  <SCORE.INTRA.SOLV>
-4.52191

>  <SCORE.INTRA.SOLV.lig_0>
-23.693

>  <SCORE.INTRA.VDW>
-0.240544

>  <SCORE.INTRA.VDW.0>
-0.602652

>  <SCORE.INTRA.norm>
-0.195593

>  <SCORE.RESTR>
0

>  <SCORE.RESTR.CAVITY>
0

>  <SCORE.RESTR.norm>
0

>  <SCORE.SYSTEM>
-20.3109

>  <SCORE.SYSTEM.CONST>
0

>  <SCORE.SYSTEM.DIHEDRAL>
4.7691

>  <SCORE.SYSTEM.POLAR>
-3.05686

>  <SCORE.SYSTEM.SOLV>
-0.0477982

>  <SCORE.SYSTEM.VDW>
-4.92486

>  <SCORE.SYSTEM.norm>
-1.84645

>  <SCORE.heavy>
11

>  <SCORE.norm>
-4.66977

$$$$
P92298492
 OpenBabel12072022113D
libRbt.so/2013.1/901 2013/11/27
 14 15  0  0  0  0  0  0  0  0999 V2000
  -30.3846   19.1244  -18.5981 C   0  0  0  0  0  0  0  0  0  0  0  0
  -31.5426   19.0691  -17.6073 C   0  0  0  0  0  0  0  0  0  0  0  0
  -31.2883   17.8242  -16.7433 C   0  0  1  0  0  0  0  0  0  0  0  0
  -30.2154   16.9882  -17.5074 C   0  0  1  0  0  0  0  0  0  0  0  0
  -30.0790   17.6591  -18.8710 C   0  0  0  0  0  0  0  0  0  0  0  0
  -28.8801   16.9819  -16.8322 N   0  3  0  0  0  0  0  0  0  0  0  0
  -28.1407   16.5972  -17.4617 H   0  0  0  0  0  0  0  0  0  0  0  0
  -28.5173   17.9660  -16.8098 H   0  0  0  0  0  0  0  0  0  0  0  0
  -28.8019   16.5797  -15.8996 H   0  0  0  0  0  0  0  0  0  0  0  0
  -30.7957   18.1060  -15.3687 C   0  0  0  0  0  0  0  0  0  0  0  0
  -31.3887   19.1158  -14.6900 N   0  0  0  0  0  0  0  0  0  0  0  0
  -31.5362   18.6392  -13.4347 N   0  5  0  0  0  0  0  0  0  0  0  0
  -30.9759   17.4160  -13.3500 N   0  0  0  0  0  0  0  0  0  0  0  0
  -30.4721   17.0702  -14.5548 N   0  0  0  0  0  0  0  0  0  0  0  0
  1  2  1  0  0  0  0
  1  5  1  0  0  0  0
  2  3  1  0  0  0  0
  3 10  1  1  0  0  0
  3  4  1  0  0  0  0
  4  5  1  0  0  0  0
  4  6  1  1  0  0  0
  6  7  1  0  0  0  0
  6  8  1  0  0  0  0
  6  9  1  0  0  0  0
 10 11  2  0  0  0  0
 10 14  1  0  0  0  0
 11 12  1  0  0  0  0
 12 13  1  0  0  0  0
 13 14  2  0  0  0  0
M  CHG  2   6   1  12  -1
M  END
>  <CHROM.0>
-62.69657546,-61.33555182,-64.83729607,-42.59338563,-177.33915202,-58.83930292
-64.07019408,-57.63029305,-168.91496171

>  <CHROM.1>
43.05261403,-167.60741182,-30.64144528,17.98718248,-16.15132398,1.25532408
0.84899352,-1.33386335

>  <Name>
P92298492

>  <RI>
0

>  <Rbt.Current_Directory>
/home/fstefaniak/projects/zuza/docking/adenine/4TZX

>  <Rbt.Executable>
rbdock ($Id: //depot/dev/client3/rdock/2013.1/src/exe/rbdock.cxx#4 $)

>  <Rbt.Library>
libRbt.so (2013.1, Build901 2013/11/27)

>  <Rbt.Parameter_File>
/home/fstefaniak/progs/rDock//data/scripts/dock_solv.prm

>  <Rbt.Receptor>
4tzx.prm

>  <SCORE>
-51.2349

>  <SCORE.INTER>
-27.0696

>  <SCORE.INTER.CONST>
1

>  <SCORE.INTER.POLAR>
-3.78147

>  <SCORE.INTER.ROT>
1

>  <SCORE.INTER.SOLV>
17.501

>  <SCORE.INTER.VDW>
-15.5418

>  <SCORE.INTER.norm>
-2.46087

>  <SCORE.INTRA>
-2.90751

>  <SCORE.INTRA.DIHEDRAL>
-0.0444777

>  <SCORE.INTRA.DIHEDRAL.0>
0.390423

>  <SCORE.INTRA.POLAR>
-0.28655

>  <SCORE.INTRA.POLAR.0>
-0.0498415

>  <SCORE.INTRA.REPUL>
0

>  <SCORE.INTRA.REPUL.0>
0

>  <SCORE.INTRA.SOLV>
-3.90324

>  <SCORE.INTRA.SOLV.lig_0>
-23.693

>  <SCORE.INTRA.VDW>
0.0406151

>  <SCORE.INTRA.VDW.0>
-0.602652

>  <SCORE.INTRA.norm>
-0.264319

>  <SCORE.RESTR>
0

>  <SCORE.RESTR.CAVITY>
0

>  <SCORE.RESTR.norm>
0

>  <SCORE.SYSTEM>
-21.2578

>  <SCORE.SYSTEM.CONST>
0

>  <SCORE.SYSTEM.DIHEDRAL>
4.30844

>  <SCORE.SYSTEM.POLAR>
-3.04983

>  <SCORE.SYSTEM.SOLV>
0.0128083

>  <SCORE.SYSTEM.VDW>
-5.44617

>  <SCORE.SYSTEM.norm>
-1.93253

>  <SCORE.heavy>
11

>  <SCORE.norm>
-4.65772

$$$$
P92298492
 OpenBabel12072022113D
libRbt.so/2013.1/901 2013/11/27
 14 15  0  0  0  0  0  0  0  0999 V2000
  -30.4101   19.1007  -18.6047 C   0  0  0  0  0  0  0  0  0  0  0  0
  -31.5604   19.0461  -17.6048 C   0  0  0  0  0  0  0  0  0  0  0  0
  -31.2922   17.8093  -16.7334 C   0  0  1  0  0  0  0  0  0  0  0  0
  -30.2201   16.9738  -17.4992 C   0  0  1  0  0  0  0  0  0  0  0  0
  -30.0979   17.6352  -18.8688 C   0  0  0  0  0  0  0  0  0  0  0  0
  -28.8798   16.9805  -16.8340 N   0  3  0  0  0  0  0  0  0  0  0  0
  -28.1388   16.6174  -17.4745 H   0  0  0  0  0  0  0  0  0  0  0  0
  -28.5334   17.9702  -16.8002 H   0  0  0  0  0  0  0  0  0  0  0  0
  -28.7877   16.5664  -15.9080 H   0  0  0  0  0  0  0  0  0  0  0  0
  -30.7910   18.1044  -15.3647 C   0  0  0  0  0  0  0  0  0  0  0  0
  -31.3921   19.1087  -14.6850 N   0  0  0  0  0  0  0  0  0  0  0  0
  -31.5211   18.6358  -13.4262 N   0  5  0  0  0  0  0  0  0  0  0  0
  -30.9425   17.4212  -13.3413 N   0  0  0  0  0  0  0  0  0  0  0  0
  -30.4450   17.0771  -14.5492 N   0  0  0  0  0  0  0  0  0  0  0  0
  1  2  1  0  0  0  0
  1  5  1  0  0  0  0
  2  3  1  0  0  0  0
  3 10  1  1  0  0  0
  3  4  1  0  0  0  0
  4  5  1  0  0  0  0
  4  6  1  1  0  0  0
  6  7  1  0  0  0  0
  6  8  1  0  0  0  0
  6  9  1  0  0  0  0
 10 11  2  0  0  0  0
 10 14  1  0  0  0  0
 11 12  1  0  0  0  0
 12 13  1  0  0  0  0
 13 14  2  0  0  0  0
M  CHG  2   6   1  12  -1
M  END
>  <CHROM.0>
-61.07721094,-65.90793172,-71.18623463,-43.56978713,-58.01998562,-60.14786215
-168.60467044,-61.76737604,-168.61240179

>  <CHROM.1>
43.57754739,-166.20174184,-30.64088800,17.97819331,-16.14736083,1.27058074
0.84253072,-1.35162740

>  <Name>
P92298492

>  <RI>
0

>  <Rbt.Current_Directory>
/home/fstefaniak/projects/zuza/docking/adenine/4TZX

>  <Rbt.Executable>
rbdock ($Id: //depot/dev/client3/rdock/2013.1/src/exe/rbdock.cxx#4 $)

>  <Rbt.Library>
libRbt.so (2013.1, Build901 2013/11/27)

>  <Rbt.Parameter_File>
/home/fstefaniak/progs/rDock//data/scripts/dock_solv.prm

>  <Rbt.Receptor>
4tzx.prm

>  <SCORE>
-50.5494

>  <SCORE.INTER>
-27.1851

>  <SCORE.INTER.CONST>
1

>  <SCORE.INTER.POLAR>
-3.7768

>  <SCORE.INTER.ROT>
1

>  <SCORE.INTER.SOLV>
17.4822

>  <SCORE.INTER.VDW>
-15.6281

>  <SCORE.INTER.norm>
-2.47137

>  <SCORE.INTRA>
-2.8097

>  <SCORE.INTRA.DIHEDRAL>
-0.0224596

>  <SCORE.INTRA.DIHEDRAL.0>
0.390423

>  <SCORE.INTRA.POLAR>
-0.261921

>  <SCORE.INTRA.POLAR.0>
-0.0498415

>  <SCORE.INTRA.REPUL>
0

>  <SCORE.INTRA.REPUL.0>
0

>  <SCORE.INTRA.SOLV>
-3.88966

>  <SCORE.INTRA.SOLV.lig_0>
-23.693

>  <SCORE.INTRA.VDW>
0.0368925

>  <SCORE.INTRA.VDW.0>
-0.602652

>  <SCORE.INTRA.norm>
-0.255427

>  <SCORE.RESTR>
0

>  <SCORE.RESTR.CAVITY>
0

>  <SCORE.RESTR.norm>
0

>  <SCORE.SYSTEM>
-20.5546

>  <SCORE.SYSTEM.CONST>
0

>  <SCORE.SYSTEM.DIHEDRAL>
5.24668

>  <SCORE.SYSTEM.POLAR>
-3.02449

>  <SCORE.SYSTEM.SOLV>
0.153499

>  <SCORE.SYSTEM.VDW>
-5.42148

>  <SCORE.SYSTEM.norm>
-1.8686

>  <SCORE.heavy>
11

>  <SCORE.norm>
-4.5954

$$$$
P92298493
 OpenBabel12072022113D
libRbt.so/2013.1/901 2013/11/27
 14 15  0  0  0  0  0  0  0  0999 V2000
  -26.7958   12.4201  -16.2359 C   0  0  0  0  0  0  0  0  0  0  0  0
  -28.1671   13.1149  -16.1542 C   0  0  0  0  0  0  0  0  0  0  0  0
  -27.9278   14.4935  -16.7544 C   0  0  2  0  0  0  0  0  0  0  0  0
  -26.5122   14.7934  -16.2677 C   0  0  1  0  0  0  0  0  0  0  0  0
  -25.7732   13.5103  -16.5914 C   0  0  0  0  0  0  0  0  0  0  0  0
  -25.9408   15.9824  -16.9393 N   0  3  0  0  0  0  0  0  0  0  0  0
  -24.9810   16.2072  -16.6597 H   0  0  0  0  0  0  0  0  0  0  0  0
  -25.8690   15.7042  -17.9513 H   0  0  0  0  0  0  0  0  0  0  0  0
  -26.5402   16.8102  -16.9105 H   0  0  0  0  0  0  0  0  0  0  0  0
  -28.8536   15.5649  -16.3579 C   0  0  0  0  0  0  0  0  0  0  0  0
  -29.5960   15.4358  -15.2310 N   0  0  0  0  0  0  0  0  0  0  0  0
  -30.0385   16.6835  -14.9952 N   0  5  0  0  0  0  0  0  0  0  0  0
  -29.5587   17.5147  -15.9488 N   0  0  0  0  0  0  0  0  0  0  0  0
  -28.7847   16.8191  -16.8161 N   0  0  0  0  0  0  0  0  0  0  0  0
  1  2  1  0  0  0  0
  1  5  1  0  0  0  0
  2  3  1  0  0  0  0
  3 10  1  1  0  0  0
  3  4  1  0  0  0  0
  4  5  1  0  0  0  0
  4  6  1  6  0  0  0
  6  7  1  0  0  0  0
  6  8  1  0  0  0  0
  6  9  1  0  0  0  0
 10 11  2  0  0  0  0
 10 14  1  0  0  0  0
 11 12  1  0  0  0  0
 12 13  1  0  0  0  0
 13 14  2  0  0  0  0
M  CHG  2   6   1  12  -1
M  END
>  <CHROM.0>
-57.95680914,170.23226609,-67.33450988,-43.27132133,-60.97409629,-173.48167065
-67.96398565,-63.42379414,-169.68032470

>  <CHROM.1>
19.57170975,-178.54323648,-27.95031137,15.14279472,-16.22161544,0.75332920
-0.36782653,3.00105800

>  <Name>
P92298493

>  <RI>
0

>  <Rbt.Current_Directory>
/home/fstefaniak/projects/zuza/docking/adenine/4TZX

>  <Rbt.Executable>
rbdock ($Id: //depot/dev/client3/rdock/2013.1/src/exe/rbdock.cxx#4 $)

>  <Rbt.Library>
libRbt.so (2013.1, Build901 2013/11/27)

>  <Rbt.Parameter_File>
/home/fstefaniak/progs/rDock//data/scripts/dock_solv.prm

>  <Rbt.Receptor>
4tzx.prm

>  <SCORE>
-53.9323

>  <SCORE.INTER>
-34.008

>  <SCORE.INTER.CONST>
1

>  <SCORE.INTER.POLAR>
-5.16908

>  <SCORE.INTER.ROT>
1

>  <SCORE.INTER.SOLV>
15.4983

>  <SCORE.INTER.VDW>
-14.8745

>  <SCORE.INTER.norm>
-3.09164

>  <SCORE.INTRA>
0.382161

>  <SCORE.INTRA.DIHEDRAL>
-0.0765211

>  <SCORE.INTRA.DIHEDRAL.0>
1.02163

>  <SCORE.INTRA.POLAR>
0.234246

>  <SCORE.INTRA.POLAR.0>
-0.763587

>  <SCORE.INTRA.REPUL>
0

>  <SCORE.INTRA.REPUL.0>
0

>  <SCORE.INTRA.SOLV>
-0.403242

>  <SCORE.INTRA.SOLV.lig_0>
-28.5849

>  <SCORE.INTRA.VDW>
-0.174395

>  <SCORE.INTRA.VDW.0>
-0.477911

>  <SCORE.INTRA.norm>
0.0347419

>  <SCORE.RESTR>
0

>  <SCORE.RESTR.CAVITY>
0

>  <SCORE.RESTR.norm>
0

>  <SCORE.SYSTEM>
-20.3064

>  <SCORE.SYSTEM.CONST>
0

>  <SCORE.SYSTEM.DIHEDRAL>
5.10144

>  <SCORE.SYSTEM.POLAR>
-3.03825

>  <SCORE.SYSTEM.SOLV>
0.0456745

>  <SCORE.SYSTEM.VDW>
-5.12581

>  <SCORE.SYSTEM.norm>
-1.84604

>  <SCORE.heavy>
11

>  <SCORE.norm>
-4.90293

$$$$
P92298493
 OpenBabel12072022113D
libRbt.so/2013.1/901 2013/11/27
 14 15  0  0  0  0  0  0  0  0999 V2000
  -26.9421   12.3849  -16.3483 C   0  0  0  0  0  0  0  0  0  0  0  0
  -28.2552   13.1620  -16.1441 C   0  0  0  0  0  0  0  0  0  0  0  0
  -27.9680   14.5443  -16.7142 C   0  0  2  0  0  0  0  0  0  0  0  0
  -26.5049   14.7348  -16.3220 C   0  0  1  0  0  0  0  0  0  0  0  0
  -25.8771   13.4203  -16.7409 C   0  0  0  0  0  0  0  0  0  0  0  0
  -25.9046   15.9094  -16.9936 N   0  3  0  0  0  0  0  0  0  0  0  0
  -24.8909   15.9955  -16.8720 H   0  0  0  0  0  0  0  0  0  0  0  0
  -26.0385   15.7228  -18.0202 H   0  0  0  0  0  0  0  0  0  0  0  0
  -26.3791   16.7937  -16.7979 H   0  0  0  0  0  0  0  0  0  0  0  0
  -28.7905   15.6567  -16.2161 C   0  0  0  0  0  0  0  0  0  0  0  0
  -29.5346   16.3889  -17.0808 N   0  0  0  0  0  0  0  0  0  0  0  0
  -30.3889   17.0542  -16.2834 N   0  5  0  0  0  0  0  0  0  0  0  0
  -30.1565   16.7106  -14.9955 N   0  0  0  0  0  0  0  0  0  0  0  0
  -29.1512   15.8045  -14.9371 N   0  0  0  0  0  0  0  0  0  0  0  0
  1  2  1  0  0  0  0
  1  5  1  0  0  0  0
  2  3  1  0  0  0  0
  3 10  1  1  0  0  0
  3  4  1  0  0  0  0
  4  5  1  0  0  0  0
  4  6  1  6  0  0  0
  6  7  1  0  0  0  0
  6  8  1  0  0  0  0
  6  9  1  0  0  0  0
 10 11  2  0  0  0  0
 10 14  1  0  0  0  0
 11 12  1  0  0  0  0
 12 13  1  0  0  0  0
 13 14  2  0  0  0  0
M  CHG  2   6   1  12  -1
M  END
>  <CHROM.0>
-58.51772737,-175.05562728,-63.84974552,-42.29207611,-55.39394361,-56.41326375
-64.18378075,-176.27857857,-168.65357647

>  <CHROM.1>
-121.10406083,-171.27804961,-28.08987314,15.08887116,-16.26875975,0.65821666
-0.34131898,2.97756377

>  <Name>
P92298493

>  <RI>
0

>  <Rbt.Current_Directory>
/home/fstefaniak/projects/zuza/docking/adenine/4TZX

>  <Rbt.Executable>
rbdock ($Id: //depot/dev/client3/rdock/2013.1/src/exe/rbdock.cxx#4 $)

>  <Rbt.Library>
libRbt.so (2013.1, Build901 2013/11/27)

>  <Rbt.Parameter_File>
/home/fstefaniak/progs/rDock//data/scripts/dock_solv.prm

>  <Rbt.Receptor>
4tzx.prm

>  <SCORE>
-53.2401

>  <SCORE.INTER>
-34.145

>  <SCORE.INTER.CONST>
1

>  <SCORE.INTER.POLAR>
-5.02594

>  <SCORE.INTER.ROT>
1

>  <SCORE.INTER.SOLV>
15.7869

>  <SCORE.INTER.VDW>
-15.5392

>  <SCORE.INTER.norm>
-3.10409

>  <SCORE.INTRA>
1.73474

>  <SCORE.INTRA.DIHEDRAL>
0.409446

>  <SCORE.INTRA.DIHEDRAL.0>
1.02163

>  <SCORE.INTRA.POLAR>
0.763587

>  <SCORE.INTRA.POLAR.0>
-0.763587

>  <SCORE.INTRA.REPUL>
0

>  <SCORE.INTRA.REPUL.0>
0

>  <SCORE.INTRA.SOLV>
-1.29762

>  <SCORE.INTRA.SOLV.lig_0>
-28.5849

>  <SCORE.INTRA.VDW>
-0.417361

>  <SCORE.INTRA.VDW.0>
-0.477911

>  <SCORE.INTRA.norm>
0.157704

>  <SCORE.RESTR>
0

>  <SCORE.RESTR.CAVITY>
0

>  <SCORE.RESTR.norm>
0

>  <SCORE.SYSTEM>
-20.8299

>  <SCORE.SYSTEM.CONST>
0

>  <SCORE.SYSTEM.DIHEDRAL>
4.58172

>  <SCORE.SYSTEM.POLAR>
-3.09087

>  <SCORE.SYSTEM.SOLV>
0.0501285

>  <SCORE.SYSTEM.VDW>
-5.12764

>  <SCORE.SYSTEM.norm>
-1.89363

>  <SCORE.heavy>
11

>  <SCORE.norm>
-4.84001

$$$$
P92298493
 OpenBabel12072022113D
libRbt.so/2013.1/901 2013/11/27
 14 15  0  0  0  0  0  0  0  0999 V2000
  -26.8338   12.4172  -16.1722 C   0  0  0  0  0  0  0  0  0  0  0  0
  -28.2005   13.1200  -16.0833 C   0  0  0  0  0  0  0  0  0  0  0  0
  -27.9665   14.4822  -16.7220 C   0  0  2  0  0  0  0  0  0  0  0  0
  -26.5411   14.7876  -16.2685 C   0  0  1  0  0  0  0  0  0  0  0  0
  -25.8133   13.4935  -16.5732 C   0  0  0  0  0  0  0  0  0  0  0  0
  -25.9770   15.9569  -16.9797 N   0  3  0  0  0  0  0  0  0  0  0  0
  -24.9896   16.1409  -16.7769 H   0  0  0  0  0  0  0  0  0  0  0  0
  -25.9975   15.6826  -17.9951 H   0  0  0  0  0  0  0  0  0  0  0  0
  -26.5379   16.8080  -16.9005 H   0  0  0  0  0  0  0  0  0  0  0  0
  -28.8805   15.5673  -16.3358 C   0  0  0  0  0  0  0  0  0  0  0  0
  -29.6291   15.4542  -15.2114 N   0  0  0  0  0  0  0  0  0  0  0  0
  -30.0571   16.7086  -14.9848 N   0  5  0  0  0  0  0  0  0  0  0  0
  -29.5630   17.5281  -15.9414 N   0  0  0  0  0  0  0  0  0  0  0  0
  -28.7941   16.8178  -16.8012 N   0  0  0  0  0  0  0  0  0  0  0  0
  1  2  1  0  0  0  0
  1  5  1  0  0  0  0
  2  3  1  0  0  0  0
  3 10  1  1  0  0  0
  3  4  1  0  0  0  0
  4  5  1  0  0  0  0
  4  6  1  6  0  0  0
  6  7  1  0  0  0  0
  6  8  1  0  0  0  0
  6  9  1  0  0  0  0
 10 11  2  0  0  0  0
 10 14  1  0  0  0  0
 11 12  1  0  0  0  0
 12 13  1  0  0  0  0
 13 14  2  0  0  0  0
M  CHG  2   6   1  12  -1
M  END
>  <CHROM.0>
-59.53552553,173.93340464,-71.85752767,-41.99863026,-58.74268419,57.22846083
-169.38705608,-60.38366560,-167.79171574

>  <CHROM.1>
17.83319284,-174.09080628,-27.97854256,15.14236942,-16.20310631,0.75312819
-0.38369069,2.98131416

>  <Name>
P92298493

>  <RI>
0

>  <Rbt.Current_Directory>
/home/fstefaniak/projects/zuza/docking/adenine/4TZX

>  <Rbt.Executable>
rbdock ($Id: //depot/dev/client3/rdock/2013.1/src/exe/rbdock.cxx#4 $)

>  <Rbt.Library>
libRbt.so (2013.1, Build901 2013/11/27)

>  <Rbt.Parameter_File>
/home/fstefaniak/progs/rDock//data/scripts/dock_solv.prm

>  <Rbt.Receptor>
4tzx.prm

>  <SCORE>
-52.4124

>  <SCORE.INTER>
-33.9639

>  <SCORE.INTER.CONST>
1

>  <SCORE.INTER.POLAR>
-5.28454

>  <SCORE.INTER.ROT>
1

>  <SCORE.INTER.SOLV>
15.5691

>  <SCORE.INTER.VDW>
-14.4839

>  <SCORE.INTER.norm>
-3.08763

>  <SCORE.INTRA>
0.610876

>  <SCORE.INTRA.DIHEDRAL>
-0.071028

>  <SCORE.INTRA.DIHEDRAL.0>
1.02163

>  <SCORE.INTRA.POLAR>
0.302525

>  <SCORE.INTRA.POLAR.0>
-0.763587

>  <SCORE.INTRA.REPUL>
0

>  <SCORE.INTRA.REPUL.0>
0

>  <SCORE.INTRA.SOLV>
-0.384604

>  <SCORE.INTRA.SOLV.lig_0>
-28.5849

>  <SCORE.INTRA.VDW>
-0.189894

>  <SCORE.INTRA.VDW.0>
-0.477911

>  <SCORE.INTRA.norm>
0.0555342

>  <SCORE.RESTR>
0

>  <SCORE.RESTR.CAVITY>
0

>  <SCORE.RESTR.norm>
0

>  <SCORE.SYSTEM>
-19.0593

>  <SCORE.SYSTEM.CONST>
0

>  <SCORE.SYSTEM.DIHEDRAL>
5.56259

>  <SCORE.SYSTEM.POLAR>
-3.04951

>  <SCORE.SYSTEM.SOLV>
0.00823834

>  <SCORE.SYSTEM.VDW>
-4.39811

>  <SCORE.SYSTEM.norm>
-1.73266

>  <SCORE.heavy>
11

>  <SCORE.norm>
-4.76476

$$$$
P93947832
 OpenBabel12072022113D
libRbt.so/2013.1/901 2013/11/27
 16 16  0  0  0  0  0  0  0  0999 V2000
  -29.1339   15.3815  -16.3644 C   0  0  0  0  0  0  0  0  0  0  0  0
  -29.5532   16.7621  -15.8550 C   0  0  1  0  0  0  0  0  0  0  0  0
  -30.0086   17.6560  -16.9856 C   0  0  0  0  0  0  0  0  0  0  0  0
  -30.6353   18.9418  -16.8277 C   0  0  0  0  0  0  0  0  0  0  0  0
  -30.9490   19.5349  -18.0300 C   0  0  0  0  0  0  0  0  0  0  0  0
  -30.4929   18.5650  -19.3590 S   0  0  0  0  0  0  0  0  0  0  0  0
  -29.8783   17.3464  -18.3286 C   0  0  0  0  0  0  0  0  0  0  0  0
  -30.6435   16.6908  -14.8966 N   0  0  0  0  0  0  0  0  0  0  0  0
  -30.9676   17.7814  -14.1292 C   0  0  0  0  0  0  0  0  0  0  0  0
  -31.8653   18.5754  -14.3839 O   0  0  0  0  0  0  0  0  0  0  0  0
  -30.1444   17.8837  -13.0152 N   0  0  0  0  0  0  0  0  0  0  0  0
  -28.7533   17.6642  -13.1760 N   0  0  0  0  0  0  0  0  0  0  0  0
  -31.4393   16.1327  -15.1727 H   0  0  0  0  0  0  0  0  0  0  0  0
  -30.5550   17.6252  -12.1221 H   0  0  0  0  0  0  0  0  0  0  0  0
  -28.3960   17.3603  -12.2641 H   0  0  0  0  0  0  0  0  0  0  0  0
  -28.3183   18.5889  -13.2931 H   0  0  0  0  0  0  0  0  0  0  0  0
  2  1  1  6  0  0  0
  2  3  1  0  0  0  0
  2  8  1  0  0  0  0
  3  4  1  0  0  0  0
  3  7  2  0  0  0  0
  4  5  2  0  0  0  0
  5  6  1  0  0  0  0
  6  7  1  0  0  0  0
  8  9  1  0  0  0  0
  8 13  1  0  0  0  0
  9 10  2  0  0  0  0
  9 11  1  0  0  0  0
 11 12  1  0  0  0  0
 11 14  1  0  0  0  0
 12 15  1  0  0  0  0
 12 16  1  0  0  0  0
M  END
>  <CHROM.0>
-60.94883159,-63.62770090,59.79512814,-42.30059769,-172.73280073,-62.40160152
54.06846236,-67.00184856,-167.24979056

>  <CHROM.1>
170.98406190,166.44838301,97.38586576,43.29301002,-154.74135264,-30.26907986
17.79395240,-16.18492860,-1.44591338,0.96847596,-1.49919828

>  <Name>
P93947832

>  <RI>
0

>  <Rbt.Current_Directory>
/home/fstefaniak/projects/zuza/docking/adenine/4TZX

>  <Rbt.Executable>
rbdock ($Id: //depot/dev/client3/rdock/2013.1/src/exe/rbdock.cxx#4 $)

>  <Rbt.Library>
libRbt.so (2013.1, Build901 2013/11/27)

>  <Rbt.Parameter_File>
/home/fstefaniak/progs/rDock//data/scripts/dock_solv.prm

>  <Rbt.Receptor>
4tzx.prm

>  <SCORE>
-62.9892

>  <SCORE.INTER>
-45.5489

>  <SCORE.INTER.CONST>
1

>  <SCORE.INTER.POLAR>
-5.18863

>  <SCORE.INTER.ROT>
5

>  <SCORE.INTER.SOLV>
17.0816

>  <SCORE.INTER.VDW>
-25.6977

>  <SCORE.INTER.norm>
-3.79574

>  <SCORE.INTRA>
1.65596

>  <SCORE.INTRA.DIHEDRAL>
-0.253505

>  <SCORE.INTRA.DIHEDRAL.0>
3.70088

>  <SCORE.INTRA.POLAR>
0

>  <SCORE.INTRA.POLAR.0>
0

>  <SCORE.INTRA.REPUL>
0

>  <SCORE.INTRA.REPUL.0>
0

>  <SCORE.INTRA.SOLV>
1.19704

>  <SCORE.INTRA.SOLV.lig_0>
-18.5501

>  <SCORE.INTRA.VDW>
1.1842

>  <SCORE.INTRA.VDW.0>
-0.445886

>  <SCORE.INTRA.norm>
0.137997

>  <SCORE.RESTR>
0

>  <SCORE.RESTR.CAVITY>
0

>  <SCORE.RESTR.norm>
0

>  <SCORE.SYSTEM>
-19.0963

>  <SCORE.SYSTEM.CONST>
0

>  <SCORE.SYSTEM.DIHEDRAL>
4.94164

>  <SCORE.SYSTEM.POLAR>
-3.01903

>  <SCORE.SYSTEM.SOLV>
-0.126066

>  <SCORE.SYSTEM.VDW>
-4.2726

>  <SCORE.SYSTEM.norm>
-1.59136

>  <SCORE.heavy>
12

>  <SCORE.norm>
-5.2491

$$$$
P93947832
 OpenBabel12072022113D
libRbt.so/2013.1/901 2013/11/27
 16 16  0  0  0  0  0  0  0  0999 V2000
  -31.6038   17.9249  -13.7824 C   0  0  0  0  0  0  0  0  0  0  0  0
  -31.0290   18.1625  -15.1804 C   0  0  1  0  0  0  0  0  0  0  0  0
  -30.0265   17.0957  -15.5569 C   0  0  0  0  0  0  0  0  0  0  0  0
  -30.3304   15.7037  -15.7589 C   0  0  0  0  0  0  0  0  0  0  0  0
  -29.2223   14.9573  -16.0914 C   0  0  0  0  0  0  0  0  0  0  0  0
  -27.8093   15.9123  -16.1712 S   0  0  0  0  0  0  0  0  0  0  0  0
  -28.6762   17.3268  -15.7567 C   0  0  0  0  0  0  0  0  0  0  0  0
  -32.0570   18.1691  -16.2078 N   0  0  0  0  0  0  0  0  0  0  0  0
  -31.7302   18.4180  -17.5173 C   0  0  0  0  0  0  0  0  0  0  0  0
  -30.6496   18.1556  -18.0317 O   0  0  0  0  0  0  0  0  0  0  0  0
  -32.7820   19.0145  -18.2007 N   0  0  0  0  0  0  0  0  0  0  0  0
  -33.7170   18.1838  -18.8675 N   0  0  0  0  0  0  0  0  0  0  0  0
  -32.8024   17.4970  -16.0920 H   0  0  0  0  0  0  0  0  0  0  0  0
  -32.5989   19.9275  -18.6081 H   0  0  0  0  0  0  0  0  0  0  0  0
  -33.1757   17.4543  -19.3433 H   0  0  0  0  0  0  0  0  0  0  0  0
  -34.0958   18.7322  -19.6509 H   0  0  0  0  0  0  0  0  0  0  0  0
  2  1  1  1  0  0  0
  2  3  1  0  0  0  0
  2  8  1  0  0  0  0
  3  4  1  0  0  0  0
  3  7  2  0  0  0  0
  4  5  2  0  0  0  0
  5  6  1  0  0  0  0
  6  7  1  0  0  0  0
  8  9  1  0  0  0  0
  8 13  1  0  0  0  0
  9 10  2  0  0  0  0
  9 11  1  0  0  0  0
 11 12  1  0  0  0  0
 11 14  1  0  0  0  0
 12 15  1  0  0  0  0
 12 16  1  0  0  0  0
M  END
>  <CHROM.0>
-55.86946798,-61.56242364,-48.80307904,-42.18193044,-57.43738815,-57.76584279
-62.63370876,-172.75726899,-168.48663155

>  <CHROM.1>
65.62345806,177.57085295,29.11755542,-90.67500774,-43.03154557,-30.58479292
17.31556848,-16.46122177,2.76057148,0.55108084,-1.60143516

>  <Name>
P93947832

>  <RI>
0

>  <Rbt.Current_Directory>
/home/fstefaniak/projects/zuza/docking/adenine/4TZX

>  <Rbt.Executable>
rbdock ($Id: //depot/dev/client3/rdock/2013.1/src/exe/rbdock.cxx#4 $)

>  <Rbt.Library>
libRbt.so (2013.1, Build901 2013/11/27)

>  <Rbt.Parameter_File>
/home/fstefaniak/progs/rDock//data/scripts/dock_solv.prm

>  <Rbt.Receptor>
4tzx.prm

>  <SCORE>
-62.976

>  <SCORE.INTER>
-41.8372

>  <SCORE.INTER.CONST>
1

>  <SCORE.INTER.POLAR>
-5.8518

>  <SCORE.INTER.ROT>
5

>  <SCORE.INTER.SOLV>
16.5642

>  <SCORE.INTER.VDW>
-20.8402

>  <SCORE.INTER.norm>
-3.48643

>  <SCORE.INTRA>
-0.570173

>  <SCORE.INTRA.DIHEDRAL>
-0.346049

>  <SCORE.INTRA.DIHEDRAL.0>
3.70088

>  <SCORE.INTRA.POLAR>
0

>  <SCORE.INTRA.POLAR.0>
0

>  <SCORE.INTRA.REPUL>
0

>  <SCORE.INTRA.REPUL.0>
0

>  <SCORE.INTRA.SOLV>
0.513761

>  <SCORE.INTRA.SOLV.lig_0>
-18.5501

>  <SCORE.INTRA.VDW>
-0.654029

>  <SCORE.INTRA.VDW.0>
-0.445886

>  <SCORE.INTRA.norm>
-0.0475144

>  <SCORE.RESTR>
0

>  <SCORE.RESTR.CAVITY>
0

>  <SCORE.RESTR.norm>
0

>  <SCORE.SYSTEM>
-20.5686

>  <SCORE.SYSTEM.CONST>
0

>  <SCORE.SYSTEM.DIHEDRAL>
5.08791

>  <SCORE.SYSTEM.POLAR>
-3.18831

>  <SCORE.SYSTEM.SOLV>
0.103129

>  <SCORE.SYSTEM.VDW>
-4.81506

>  <SCORE.SYSTEM.norm>
-1.71405

>  <SCORE.heavy>
12

>  <SCORE.norm>
-5.248

$$$$
P93947832
 OpenBabel12072022113D
libRbt.so/2013.1/901 2013/11/27
 16 16  0  0  0  0  0  0  0  0999 V2000
  -29.1735   15.3486  -16.3432 C   0  0  0  0  0  0  0  0  0  0  0  0
  -29.6361   16.7317  -15.8804 C   0  0  1  0  0  0  0  0  0  0  0  0
  -30.2274   17.5293  -17.0201 C   0  0  0  0  0  0  0  0  0  0  0  0
  -31.4374   18.3052  -16.9516 C   0  0  0  0  0  0  0  0  0  0  0  0
  -31.7423   18.9265  -18.1418 C   0  0  0  0  0  0  0  0  0  0  0  0
  -30.5836   18.5941  -19.3509 S   0  0  0  0  0  0  0  0  0  0  0  0
  -29.6730   17.6141  -18.2858 C   0  0  0  0  0  0  0  0  0  0  0  0
  -30.6457   16.6574  -14.8375 N   0  0  0  0  0  0  0  0  0  0  0  0
  -30.9495   17.7629  -14.0833 C   0  0  0  0  0  0  0  0  0  0  0  0
  -31.8526   18.5532  -14.3308 O   0  0  0  0  0  0  0  0  0  0  0  0
  -30.0987   17.8854  -12.9923 N   0  0  0  0  0  0  0  0  0  0  0  0
  -28.7102   17.6777  -13.1870 N   0  0  0  0  0  0  0  0  0  0  0  0
  -31.4393   16.0629  -15.0318 H   0  0  0  0  0  0  0  0  0  0  0  0
  -30.4834   17.6326  -12.0861 H   0  0  0  0  0  0  0  0  0  0  0  0
  -28.3210   17.4166  -12.2749 H   0  0  0  0  0  0  0  0  0  0  0  0
  -28.2923   18.6023  -13.3554 H   0  0  0  0  0  0  0  0  0  0  0  0
  2  1  1  6  0  0  0
  2  3  1  0  0  0  0
  2  8  1  0  0  0  0
  3  4  1  0  0  0  0
  3  7  2  0  0  0  0
  4  5  2  0  0  0  0
  5  6  1  0  0  0  0
  6  7  1  0  0  0  0
  8  9  1  0  0  0  0
  8 13  1  0  0  0  0
  9 10  2  0  0  0  0
  9 11  1  0  0  0  0
 11 12  1  0  0  0  0
 11 14  1  0  0  0  0
 12 15  1  0  0  0  0
 12 16  1  0  0  0  0
M  END
>  <CHROM.0>
-62.55843572,-62.98685604,-71.44158888,-42.80474426,-56.07736735,-63.13413638
-167.28328115,-57.76612392,-169.54895361

>  <CHROM.1>
135.74675693,164.57388751,93.58447022,44.09041397,-156.52312382,-30.39595189
17.71283641,-16.18588093,-1.39494260,0.79667398,-1.53505915

>  <Name>
P93947832

>  <RI>
0

>  <Rbt.Current_Directory>
/home/fstefaniak/projects/zuza/docking/adenine/4TZX

>  <Rbt.Executable>
rbdock ($Id: //depot/dev/client3/rdock/2013.1/src/exe/rbdock.cxx#4 $)

>  <Rbt.Library>
libRbt.so (2013.1, Build901 2013/11/27)

>  <Rbt.Parameter_File>
/home/fstefaniak/progs/rDock//data/scripts/dock_solv.prm

>  <Rbt.Receptor>
4tzx.prm

>  <SCORE>
-62.6308

>  <SCORE.INTER>
-43.2364

>  <SCORE.INTER.CONST>
1

>  <SCORE.INTER.POLAR>
-5.12246

>  <SCORE.INTER.ROT>
5

>  <SCORE.INTER.SOLV>
16.9742

>  <SCORE.INTER.VDW>
-24.3408

>  <SCORE.INTER.norm>
-3.60303

>  <SCORE.INTRA>
1.11007

>  <SCORE.INTRA.DIHEDRAL>
-0.280806

>  <SCORE.INTRA.DIHEDRAL.0>
3.70088

>  <SCORE.INTRA.POLAR>
0

>  <SCORE.INTRA.POLAR.0>
0

>  <SCORE.INTRA.REPUL>
0

>  <SCORE.INTRA.REPUL.0>
0

>  <SCORE.INTRA.SOLV>
1.08497

>  <SCORE.INTRA.SOLV.lig_0>
-18.5501

>  <SCORE.INTRA.VDW>
0.707989

>  <SCORE.INTRA.VDW.0>
-0.445886

>  <SCORE.INTRA.norm>
0.0925061

>  <SCORE.RESTR>
0

>  <SCORE.RESTR.CAVITY>
0

>  <SCORE.RESTR.norm>
0

>  <SCORE.SYSTEM>
-20.5044

>  <SCORE.SYSTEM.CONST>
0

>  <SCORE.SYSTEM.DIHEDRAL>
5.43334

>  <SCORE.SYSTEM.POLAR>
-3.02113

>  <SCORE.SYSTEM.SOLV>
0.157107

>  <SCORE.SYSTEM.VDW>
-5.46268

>  <SCORE.SYSTEM.norm>
-1.7087

>  <SCORE.heavy>
12

>  <SCORE.norm>
-5.21923

$$$$
P94260767
 OpenBabel12072022113D
libRbt.so/2013.1/901 2013/11/27
 18 18  0  0  0  0  0  0  0  0999 V2000
  -25.6062   16.2876  -16.6487 C   0  0  0  0  0  0  0  0  0  0  0  0
  -26.1488   14.9412  -16.2523 C   0  0  0  0  0  0  0  0  0  0  0  0
  -25.2366   13.9493  -15.8453 C   0  0  0  0  0  0  0  0  0  0  0  0
  -25.6637   12.6754  -15.4671 C   0  0  0  0  0  0  0  0  0  0  0  0
  -27.0231   12.3881  -15.4883 C   0  0  0  0  0  0  0  0  0  0  0  0
  -27.9445   13.3639  -15.8905 C   0  0  0  0  0  0  0  0  0  0  0  0
  -27.5266   14.6421  -16.2764 C   0  0  0  0  0  0  0  0  0  0  0  0
  -28.4329   15.6384  -16.6964 N   0  0  0  0  0  0  0  0  0  0  0  0
  -29.5144   16.1575  -16.0254 C   0  0  0  0  0  0  0  0  0  0  0  0
  -29.8971   15.8729  -14.8963 O   0  0  0  0  0  0  0  0  0  0  0  0
  -30.2147   17.1075  -16.7583 N   0  0  0  0  0  0  0  0  0  0  0  0
  -29.9455   17.4731  -18.0884 N   0  0  0  0  0  0  0  0  0  0  0  0
  -24.6627   11.8190  -15.1023 O   0  0  0  0  0  0  0  0  0  0  0  0
  -24.5228   11.5526  -13.7121 C   0  0  0  0  0  0  0  0  0  0  0  0
  -28.2758   16.0625  -17.5928 H   0  0  0  0  0  0  0  0  0  0  0  0
  -31.0344   17.4899  -16.2886 H   0  0  0  0  0  0  0  0  0  0  0  0
  -29.7498   18.4740  -18.1415 H   0  0  0  0  0  0  0  0  0  0  0  0
  -30.7427   17.2413  -18.6821 H   0  0  0  0  0  0  0  0  0  0  0  0
  1  2  1  0  0  0  0
  2  3  2  0  0  0  0
  2  7  1  0  0  0  0
  3  4  1  0  0  0  0
  4  5  2  0  0  0  0
  4 13  1  0  0  0  0
  5  6  1  0  0  0  0
  6  7  2  0  0  0  0
  7  8  1  0  0  0  0
  8  9  1  0  0  0  0
  8 15  1  0  0  0  0
  9 10  2  0  0  0  0
  9 11  1  0  0  0  0
 11 12  1  0  0  0  0
 11 16  1  0  0  0  0
 12 17  1  0  0  0  0
 12 18  1  0  0  0  0
 13 14  1  0  0  0  0
M  END
>  <CHROM.0>
-61.37957608,-58.51497903,-59.90449425,-42.64169561,-56.88836671,-59.59142733
-65.04029435,-55.45418512,-168.58589288

>  <CHROM.1>
105.50334855,-123.60569133,-121.78183724,-27.35293286,14.61601156,-15.94810986
-2.34412981,-0.18757882,2.56324879

>  <Name>
P94260767

>  <RI>
0

>  <Rbt.Current_Directory>
/home/fstefaniak/projects/zuza/docking/adenine/4TZX

>  <Rbt.Executable>
rbdock ($Id: //depot/dev/client3/rdock/2013.1/src/exe/rbdock.cxx#4 $)

>  <Rbt.Library>
libRbt.so (2013.1, Build901 2013/11/27)

>  <Rbt.Parameter_File>
/home/fstefaniak/progs/rDock//data/scripts/dock_solv.prm

>  <Rbt.Receptor>
4tzx.prm

>  <SCORE>
-44.2743

>  <SCORE.INTER>
-26.06

>  <SCORE.INTER.CONST>
1

>  <SCORE.INTER.POLAR>
-2.6065

>  <SCORE.INTER.ROT>
3

>  <SCORE.INTER.SOLV>
12.227

>  <SCORE.INTER.VDW>
-18.3606

>  <SCORE.INTER.norm>
-1.86143

>  <SCORE.INTRA>
2.68964

>  <SCORE.INTRA.DIHEDRAL>
13.1628

>  <SCORE.INTRA.DIHEDRAL.0>
0.489232

>  <SCORE.INTRA.POLAR>
-0.18154

>  <SCORE.INTRA.POLAR.0>
0

>  <SCORE.INTRA.REPUL>
0

>  <SCORE.INTRA.REPUL.0>
0

>  <SCORE.INTRA.SOLV>
-0.365243

>  <SCORE.INTRA.SOLV.lig_0>
-20.5172

>  <SCORE.INTRA.VDW>
-3.09188

>  <SCORE.INTRA.VDW.0>
2.18768

>  <SCORE.INTRA.norm>
0.192117

>  <SCORE.RESTR>
0

>  <SCORE.RESTR.CAVITY>
0

>  <SCORE.RESTR.norm>
0

>  <SCORE.SYSTEM>
-20.904

>  <SCORE.SYSTEM.CONST>
0

>  <SCORE.SYSTEM.DIHEDRAL>
4.31829

>  <SCORE.SYSTEM.POLAR>
-3.06808

>  <SCORE.SYSTEM.SOLV>
0.210276

>  <SCORE.SYSTEM.VDW>
-5.21856

>  <SCORE.SYSTEM.norm>
-1.49314

>  <SCORE.heavy>
14

>  <SCORE.norm>
-3.16245

$$$$
P94260767
 OpenBabel12072022113D
libRbt.so/2013.1/901 2013/11/27
 18 18  0  0  0  0  0  0  0  0999 V2000
  -25.6458   16.2631  -16.5976 C   0  0  0  0  0  0  0  0  0  0  0  0
  -26.2031   14.9091  -16.2502 C   0  0  0  0  0  0  0  0  0  0  0  0
  -25.3034   13.8987  -15.8613 C   0  0  0  0  0  0  0  0  0  0  0  0
  -25.7445   12.6170  -15.5282 C   0  0  0  0  0  0  0  0  0  0  0  0
  -27.1055   12.3403  -15.5770 C   0  0  0  0  0  0  0  0  0  0  0  0
  -28.0144   13.3346  -15.9618 C   0  0  0  0  0  0  0  0  0  0  0  0
  -27.5824   14.6209  -16.3026 C   0  0  0  0  0  0  0  0  0  0  0  0
  -28.4759   15.6362  -16.7043 N   0  0  0  0  0  0  0  0  0  0  0  0
  -29.5578   16.1485  -16.0289 C   0  0  0  0  0  0  0  0  0  0  0  0
  -29.9522   15.8394  -14.9104 O   0  0  0  0  0  0  0  0  0  0  0  0
  -30.2433   17.1234  -16.7431 N   0  0  0  0  0  0  0  0  0  0  0  0
  -29.9599   17.5197  -18.0614 N   0  0  0  0  0  0  0  0  0  0  0  0
  -24.7546   11.7425  -15.1760 O   0  0  0  0  0  0  0  0  0  0  0  0
  -24.4754   11.6171  -13.7870 C   0  0  0  0  0  0  0  0  0  0  0  0
  -28.3076   16.0812  -17.5885 H   0  0  0  0  0  0  0  0  0  0  0  0
  -31.0630   17.5017  -16.2702 H   0  0  0  0  0  0  0  0  0  0  0  0
  -29.8446   18.5336  -18.1029 H   0  0  0  0  0  0  0  0  0  0  0  0
  -30.7152   17.2285  -18.6831 H   0  0  0  0  0  0  0  0  0  0  0  0
  1  2  1  0  0  0  0
  2  3  2  0  0  0  0
  2  7  1  0  0  0  0
  3  4  1  0  0  0  0
  4  5  2  0  0  0  0
  4 13  1  0  0  0  0
  5  6  1  0  0  0  0
  6  7  2  0  0  0  0
  7  8  1  0  0  0  0
  8  9  1  0  0  0  0
  8 15  1  0  0  0  0
  9 10  2  0  0  0  0
  9 11  1  0  0  0  0
 11 12  1  0  0  0  0
 11 16  1  0  0  0  0
 12 17  1  0  0  0  0
 12 18  1  0  0  0  0
 13 14  1  0  0  0  0
M  END
>  <CHROM.0>
-60.41118502,-62.72891182,-70.63706986,-43.41181675,-57.70980970,-59.80777611
-166.69172461,-59.60816477,-168.26819824

>  <CHROM.1>
94.44933074,-123.12042441,-127.30734254,-27.40022648,14.59885577,-15.97158556
-2.34171506,-0.17111187,2.59657252

>  <Name>
P94260767

>  <RI>
0

>  <Rbt.Current_Directory>
/home/fstefaniak/projects/zuza/docking/adenine/4TZX

>  <Rbt.Executable>
rbdock ($Id: //depot/dev/client3/rdock/2013.1/src/exe/rbdock.cxx#4 $)

>  <Rbt.Library>
libRbt.so (2013.1, Build901 2013/11/27)

>  <Rbt.Parameter_File>
/home/fstefaniak/progs/rDock//data/scripts/dock_solv.prm

>  <Rbt.Receptor>
4tzx.prm

>  <SCORE>
-43.9467

>  <SCORE.INTER>
-26.3432

>  <SCORE.INTER.CONST>
1

>  <SCORE.INTER.POLAR>
-2.56006

>  <SCORE.INTER.ROT>
3

>  <SCORE.INTER.SOLV>
12.1295

>  <SCORE.INTER.VDW>
-18.6718

>  <SCORE.INTER.norm>
-1.88166

>  <SCORE.INTRA>
2.90015

>  <SCORE.INTRA.DIHEDRAL>
13.5998

>  <SCORE.INTRA.DIHEDRAL.0>
0.489232

>  <SCORE.INTRA.POLAR>
-0.18154

>  <SCORE.INTRA.POLAR.0>
0

>  <SCORE.INTRA.REPUL>
0

>  <SCORE.INTRA.REPUL.0>
0

>  <SCORE.INTRA.SOLV>
-0.364636

>  <SCORE.INTRA.SOLV.lig_0>
-20.5172

>  <SCORE.INTRA.VDW>
-3.10018

>  <SCORE.INTRA.VDW.0>
2.18768

>  <SCORE.INTRA.norm>
0.207154

>  <SCORE.RESTR>
0

>  <SCORE.RESTR.CAVITY>
0

>  <SCORE.RESTR.norm>
0

>  <SCORE.SYSTEM>
-20.5037

>  <SCORE.SYSTEM.CONST>
0

>  <SCORE.SYSTEM.DIHEDRAL>
5.30822

>  <SCORE.SYSTEM.POLAR>
-3.03409

>  <SCORE.SYSTEM.SOLV>
0.163896

>  <SCORE.SYSTEM.VDW>
-5.37952

>  <SCORE.SYSTEM.norm>
-1.46455

>  <SCORE.heavy>
14

>  <SCORE.norm>
-3.13905

$$$$
P94260767
 OpenBabel12072022113D
libRbt.so/2013.1/901 2013/11/27
 18 18  0  0  0  0  0  0  0  0999 V2000
  -25.6351   16.1820  -16.6743 C   0  0  0  0  0  0  0  0  0  0  0  0
  -26.1864   14.8292  -16.3130 C   0  0  0  0  0  0  0  0  0  0  0  0
  -25.2788   13.8138  -15.9569 C   0  0  0  0  0  0  0  0  0  0  0  0
  -25.7140   12.5329  -15.6135 C   0  0  0  0  0  0  0  0  0  0  0  0
  -27.0770   12.2619  -15.6186 C   0  0  0  0  0  0  0  0  0  0  0  0
  -27.9939   13.2611  -15.9703 C   0  0  0  0  0  0  0  0  0  0  0  0
  -27.5679   14.5468  -16.3211 C   0  0  0  0  0  0  0  0  0  0  0  0
  -28.4699   15.5669  -16.6902 N   0  0  0  0  0  0  0  0  0  0  0  0
  -29.3928   16.2240  -15.9119 C   0  0  0  0  0  0  0  0  0  0  0  0
  -29.6003   16.0714  -14.7136 O   0  0  0  0  0  0  0  0  0  0  0  0
  -30.1464   17.1547  -16.6164 N   0  0  0  0  0  0  0  0  0  0  0  0
  -30.0789   17.3783  -18.0023 N   0  0  0  0  0  0  0  0  0  0  0  0
  -24.7168   11.6532  -15.2967 O   0  0  0  0  0  0  0  0  0  0  0  0
  -24.7019   11.1550  -13.9645 C   0  0  0  0  0  0  0  0  0  0  0  0
  -28.4377   15.8960  -17.6382 H   0  0  0  0  0  0  0  0  0  0  0  0
  -30.8529   17.6382  -16.0636 H   0  0  0  0  0  0  0  0  0  0  0  0
  -29.1059   17.3540  -18.3118 H   0  0  0  0  0  0  0  0  0  0  0  0
  -30.4954   18.2817  -18.2306 H   0  0  0  0  0  0  0  0  0  0  0  0
  1  2  1  0  0  0  0
  2  3  2  0  0  0  0
  2  7  1  0  0  0  0
  3  4  1  0  0  0  0
  4  5  2  0  0  0  0
  4 13  1  0  0  0  0
  5  6  1  0  0  0  0
  6  7  2  0  0  0  0
  7  8  1  0  0  0  0
  8  9  1  0  0  0  0
  8 15  1  0  0  0  0
  9 10  2  0  0  0  0
  9 11  1  0  0  0  0
 11 12  1  0  0  0  0
 11 16  1  0  0  0  0
 12 17  1  0  0  0  0
 12 18  1  0  0  0  0
 13 14  1  0  0  0  0
M  END
>  <CHROM.0>
-61.64858428,-60.47156278,-63.62955817,-42.49642277,-55.29976301,-174.09356123
-65.82929142,-59.22007053,-169.26876435

>  <CHROM.1>
116.33758048,-112.05410041,-41.10368945,-27.36185885,14.52914320,-15.98128574
-2.32329827,-0.24956496,2.59045783

>  <Name>
P94260767

>  <RI>
0

>  <Rbt.Current_Directory>
/home/fstefaniak/projects/zuza/docking/adenine/4TZX

>  <Rbt.Executable>
rbdock ($Id: //depot/dev/client3/rdock/2013.1/src/exe/rbdock.cxx#4 $)

>  <Rbt.Library>
libRbt.so (2013.1, Build901 2013/11/27)

>  <Rbt.Parameter_File>
/home/fstefaniak/progs/rDock//data/scripts/dock_solv.prm

>  <Rbt.Receptor>
4tzx.prm

>  <SCORE>
-42.8534

>  <SCORE.INTER>
-27.5168

>  <SCORE.INTER.CONST>
1

>  <SCORE.INTER.POLAR>
-2.86763

>  <SCORE.INTER.ROT>
3

>  <SCORE.INTER.SOLV>
11.4245

>  <SCORE.INTER.VDW>
-18.1939

>  <SCORE.INTER.norm>
-1.96549

>  <SCORE.INTRA>
5.56137

>  <SCORE.INTRA.DIHEDRAL>
14.7808

>  <SCORE.INTRA.DIHEDRAL.0>
0.489232

>  <SCORE.INTRA.POLAR>
-0.0316265

>  <SCORE.INTRA.POLAR.0>
0

>  <SCORE.INTRA.REPUL>
0

>  <SCORE.INTRA.REPUL.0>
0

>  <SCORE.INTRA.SOLV>
-0.212497

>  <SCORE.INTRA.SOLV.lig_0>
-20.5172

>  <SCORE.INTRA.VDW>
-1.61523

>  <SCORE.INTRA.VDW.0>
2.18768

>  <SCORE.INTRA.norm>
0.397241

>  <SCORE.RESTR>
0

>  <SCORE.RESTR.CAVITY>
0

>  <SCORE.RESTR.norm>
0

>  <SCORE.SYSTEM>
-20.898

>  <SCORE.SYSTEM.CONST>
0

>  <SCORE.SYSTEM.DIHEDRAL>
4.49018

>  <SCORE.SYSTEM.POLAR>
-3.0553

>  <SCORE.SYSTEM.SOLV>
0.0782724

>  <SCORE.SYSTEM.VDW>
-5.27049

>  <SCORE.SYSTEM.norm>
-1.49271

>  <SCORE.heavy>
14

>  <SCORE.norm>
-3.06096

$$$$
P94512349
 OpenBabel12072022113D
libRbt.so/2013.1/901 2013/11/27
 13 13  0  0  0  0  0  0  0  0999 V2000
  -27.1856   13.3994  -17.0191 C   0  0  0  0  0  0  0  0  0  0  0  0
  -28.4130   14.0005  -16.3632 C   0  0  0  0  0  0  0  0  0  0  0  0
  -28.3459   15.4467  -16.3435 N   0  0  0  0  0  0  0  0  0  0  0  0
  -29.3158   16.1625  -15.6885 C   0  0  0  0  0  0  0  0  0  0  0  0
  -29.5059   16.0799  -14.4789 O   0  0  0  0  0  0  0  0  0  0  0  0
  -30.0486   16.9924  -16.4983 N   0  0  0  0  0  0  0  0  0  0  0  0
  -31.1164   17.8091  -15.9538 C   0  0  0  0  0  0  0  0  0  0  0  0
  -31.7826   18.4215  -17.1737 C   0  0  0  0  0  0  0  0  0  0  0  0
  -30.6179   18.5955  -18.1437 C   0  0  1  0  0  0  0  0  0  0  0  0
  -29.7692   17.3493  -17.8830 C   0  0  0  0  0  0  0  0  0  0  0  0
  -31.0690   18.6601  -19.4852 O   0  0  0  0  0  0  0  0  0  0  0  0
  -28.0102   15.8921  -17.1834 H   0  0  0  0  0  0  0  0  0  0  0  0
  -31.4862   17.8063  -19.6948 H   0  0  0  0  0  0  0  0  0  0  0  0
  1  2  1  0  0  0  0
  2  3  1  0  0  0  0
  3  4  1  0  0  0  0
  3 12  1  0  0  0  0
  4  5  2  0  0  0  0
  4  6  1  0  0  0  0
  6  7  1  0  0  0  0
  6 10  1  0  0  0  0
  7  8  1  0  0  0  0
  8  9  1  0  0  0  0
  9 10  1  0  0  0  0
  9 11  1  6  0  0  0
 11 13  1  0  0  0  0
M  END
>  <CHROM.0>
-60.38530759,-62.94129369,-63.62737455,-42.74997365,-55.70467147,-61.76307935
-64.19885225,-60.99388440,-168.18128211

>  <CHROM.1>
-174.54026065,63.00533378,-63.25091179,-29.74009212,16.62303720,-16.85299462
-0.51205843,0.87360843,-1.36659370

>  <Name>
P94512349

>  <RI>
0

>  <Rbt.Current_Directory>
/home/fstefaniak/projects/zuza/docking/adenine/4TZX

>  <Rbt.Executable>
rbdock ($Id: //depot/dev/client3/rdock/2013.1/src/exe/rbdock.cxx#4 $)

>  <Rbt.Library>
libRbt.so (2013.1, Build901 2013/11/27)

>  <Rbt.Parameter_File>
/home/fstefaniak/progs/rDock//data/scripts/dock_solv.prm

>  <Rbt.Receptor>
4tzx.prm

>  <SCORE>
-49.1883

>  <SCORE.INTER>
-28.336

>  <SCORE.INTER.CONST>
1

>  <SCORE.INTER.POLAR>
-2.93395

>  <SCORE.INTER.ROT>
2

>  <SCORE.INTER.SOLV>
12.7727

>  <SCORE.INTER.VDW>
-18.3017

>  <SCORE.INTER.norm>
-2.576

>  <SCORE.INTRA>
0.243436

>  <SCORE.INTRA.DIHEDRAL>
0.0727642

>  <SCORE.INTRA.DIHEDRAL.0>
0.815271

>  <SCORE.INTRA.POLAR>
0

>  <SCORE.INTRA.POLAR.0>
0

>  <SCORE.INTRA.REPUL>
0

>  <SCORE.INTRA.REPUL.0>
0

>  <SCORE.INTRA.SOLV>
-0.0251208

>  <SCORE.INTRA.SOLV.lig_0>
-15.4579

>  <SCORE.INTRA.VDW>
0.219614

>  <SCORE.INTRA.VDW.0>
0.765689

>  <SCORE.INTRA.norm>
0.0221305

>  <SCORE.RESTR>
0

>  <SCORE.RESTR.CAVITY>
0

>  <SCORE.RESTR.norm>
0

>  <SCORE.SYSTEM>
-21.0957

>  <SCORE.SYSTEM.CONST>
0

>  <SCORE.SYSTEM.DIHEDRAL>
4.35464

>  <SCORE.SYSTEM.POLAR>
-3.06293

>  <SCORE.SYSTEM.SOLV>
0.195387

>  <SCORE.SYSTEM.VDW>
-5.37075

>  <SCORE.SYSTEM.norm>
-1.91779

>  <SCORE.heavy>
11

>  <SCORE.norm>
-4.47166

$$$$
P94512349
 OpenBabel12072022113D
libRbt.so/2013.1/901 2013/11/27
 13 13  0  0  0  0  0  0  0  0999 V2000
  -27.1506   13.3051  -16.9811 C   0  0  0  0  0  0  0  0  0  0  0  0
  -28.4280   13.9413  -16.4695 C   0  0  0  0  0  0  0  0  0  0  0  0
  -28.3072   15.3822  -16.3963 N   0  0  0  0  0  0  0  0  0  0  0  0
  -29.2265   16.1050  -15.6790 C   0  0  0  0  0  0  0  0  0  0  0  0
  -29.3496   16.0098  -14.4617 O   0  0  0  0  0  0  0  0  0  0  0  0
  -29.9895   16.9572  -16.4361 N   0  0  0  0  0  0  0  0  0  0  0  0
  -31.0112   17.7838  -15.8224 C   0  0  0  0  0  0  0  0  0  0  0  0
  -31.7345   18.4227  -16.9952 C   0  0  0  0  0  0  0  0  0  0  0  0
  -30.6234   18.5905  -18.0273 C   0  0  1  0  0  0  0  0  0  0  0  0
  -29.7825   17.3274  -17.8300 C   0  0  0  0  0  0  0  0  0  0  0  0
  -31.1482   18.6797  -19.3403 O   0  0  0  0  0  0  0  0  0  0  0  0
  -27.9851   15.8488  -17.2300 H   0  0  0  0  0  0  0  0  0  0  0  0
  -31.6929   17.8877  -19.4920 H   0  0  0  0  0  0  0  0  0  0  0  0
  1  2  1  0  0  0  0
  2  3  1  0  0  0  0
  3  4  1  0  0  0  0
  3 12  1  0  0  0  0
  4  5  2  0  0  0  0
  4  6  1  0  0  0  0
  6  7  1  0  0  0  0
  6 10  1  0  0  0  0
  7  8  1  0  0  0  0
  8  9  1  0  0  0  0
  9 10  1  0  0  0  0
  9 11  1  6  0  0  0
 11 13  1  0  0  0  0
M  END
>  <CHROM.0>
-178.07549041,-60.48630158,-72.43935397,-43.41080759,61.06923009,59.29739356
-170.08151483,-176.52025922,-168.94949023

>  <CHROM.1>
-165.05950377,65.24264473,-55.65594330,-29.70405000,16.58628217,-16.79810526
-0.44184794,0.89410151,-1.41259718

>  <Name>
P94512349

>  <RI>
0

>  <Rbt.Current_Directory>
/home/fstefaniak/projects/zuza/docking/adenine/4TZX

>  <Rbt.Executable>
rbdock ($Id: //depot/dev/client3/rdock/2013.1/src/exe/rbdock.cxx#4 $)

>  <Rbt.Library>
libRbt.so (2013.1, Build901 2013/11/27)

>  <Rbt.Parameter_File>
/home/fstefaniak/progs/rDock//data/scripts/dock_solv.prm

>  <Rbt.Receptor>
4tzx.prm

>  <SCORE>
-49.1717

>  <SCORE.INTER>
-33.6816

>  <SCORE.INTER.CONST>
1

>  <SCORE.INTER.POLAR>
-4.00032

>  <SCORE.INTER.ROT>
2

>  <SCORE.INTER.SOLV>
12.5721

>  <SCORE.INTER.VDW>
-18.244

>  <SCORE.INTER.norm>
-3.06196

>  <SCORE.INTRA>
0.0231673

>  <SCORE.INTRA.DIHEDRAL>
0.0762526

>  <SCORE.INTRA.DIHEDRAL.0>
0.815271

>  <SCORE.INTRA.POLAR>
0

>  <SCORE.INTRA.POLAR.0>
0

>  <SCORE.INTRA.REPUL>
0

>  <SCORE.INTRA.REPUL.0>
0

>  <SCORE.INTRA.SOLV>
-0.0224229

>  <SCORE.INTRA.SOLV.lig_0>
-15.4579

>  <SCORE.INTRA.VDW>
-0.00374757

>  <SCORE.INTRA.VDW.0>
0.765689

>  <SCORE.INTRA.norm>
0.00210611

>  <SCORE.RESTR>
0

>  <SCORE.RESTR.CAVITY>
0

>  <SCORE.RESTR.norm>
0

>  <SCORE.SYSTEM>
-15.5133

>  <SCORE.SYSTEM.CONST>
0

>  <SCORE.SYSTEM.DIHEDRAL>
5.1028

>  <SCORE.SYSTEM.POLAR>
-2.44835

>  <SCORE.SYSTEM.SOLV>
-0.330496

>  <SCORE.SYSTEM.VDW>
-3.77182

>  <SCORE.SYSTEM.norm>
-1.4103

>  <SCORE.heavy>
11

>  <SCORE.norm>
-4.47016

$$$$
P94512349
 OpenBabel12072022113D
libRbt.so/2013.1/901 2013/11/27
 13 13  0  0  0  0  0  0  0  0999 V2000
  -27.1455   13.3356  -16.8286 C   0  0  0  0  0  0  0  0  0  0  0  0
  -28.4606   13.9818  -16.4395 C   0  0  0  0  0  0  0  0  0  0  0  0
  -28.3577   15.4259  -16.4341 N   0  0  0  0  0  0  0  0  0  0  0  0
  -29.2938   16.1708  -15.7625 C   0  0  0  0  0  0  0  0  0  0  0  0
  -29.4526   16.1073  -14.5474 O   0  0  0  0  0  0  0  0  0  0  0  0
  -30.0304   17.0064  -16.5630 N   0  0  0  0  0  0  0  0  0  0  0  0
  -31.0652   17.8528  -16.0005 C   0  0  0  0  0  0  0  0  0  0  0  0
  -31.7511   18.4645  -17.2098 C   0  0  0  0  0  0  0  0  0  0  0  0
  -30.6098   18.6011  -18.2131 C   0  0  1  0  0  0  0  0  0  0  0  0
  -29.7812   17.3400  -17.9593 C   0  0  0  0  0  0  0  0  0  0  0  0
  -31.0958   18.6589  -19.5427 O   0  0  0  0  0  0  0  0  0  0  0  0
  -28.0315   15.8560  -17.2857 H   0  0  0  0  0  0  0  0  0  0  0  0
  -31.5505   17.8179  -19.7246 H   0  0  0  0  0  0  0  0  0  0  0  0
  1  2  1  0  0  0  0
  2  3  1  0  0  0  0
  3  4  1  0  0  0  0
  3 12  1  0  0  0  0
  4  5  2  0  0  0  0
  4  6  1  0  0  0  0
  6  7  1  0  0  0  0
  6 10  1  0  0  0  0
  7  8  1  0  0  0  0
  8  9  1  0  0  0  0
  9 10  1  0  0  0  0
  9 11  1  6  0  0  0
 11 13  1  0  0  0  0
M  END
>  <CHROM.0>
-61.82044312,-61.52864780,-62.34361701,-42.90653494,-60.11980727,-175.07281111
-68.43805379,-56.77707752,-169.33076754

>  <CHROM.1>
-161.76874512,63.34817865,-62.26810343,-29.72918311,16.62516799,-16.89442989
-0.50227823,0.88629202,-1.39352121

>  <Name>
P94512349

>  <RI>
0

>  <Rbt.Current_Directory>
/home/fstefaniak/projects/zuza/docking/adenine/4TZX

>  <Rbt.Executable>
rbdock ($Id: //depot/dev/client3/rdock/2013.1/src/exe/rbdock.cxx#4 $)

>  <Rbt.Library>
libRbt.so (2013.1, Build901 2013/11/27)

>  <Rbt.Parameter_File>
/home/fstefaniak/progs/rDock//data/scripts/dock_solv.prm

>  <Rbt.Receptor>
4tzx.prm

>  <SCORE>
-49.0326

>  <SCORE.INTER>
-28.2045

>  <SCORE.INTER.CONST>
1

>  <SCORE.INTER.POLAR>
-2.89007

>  <SCORE.INTER.ROT>
2

>  <SCORE.INTER.SOLV>
12.7344

>  <SCORE.INTER.VDW>
-18.3475

>  <SCORE.INTER.norm>
-2.56404

>  <SCORE.INTRA>
0.0786307

>  <SCORE.INTRA.DIHEDRAL>
0.0548855

>  <SCORE.INTRA.DIHEDRAL.0>
0.815271

>  <SCORE.INTRA.POLAR>
0

>  <SCORE.INTRA.POLAR.0>
0

>  <SCORE.INTRA.REPUL>
0

>  <SCORE.INTRA.REPUL.0>
0

>  <SCORE.INTRA.SOLV>
-0.0177737

>  <SCORE.INTRA.SOLV.lig_0>
-15.4579

>  <SCORE.INTRA.VDW>
0.0600749

>  <SCORE.INTRA.VDW.0>
0.765689

>  <SCORE.INTRA.norm>
0.00714825

>  <SCORE.RESTR>
0

>  <SCORE.RESTR.CAVITY>
0

>  <SCORE.RESTR.norm>
0

>  <SCORE.SYSTEM>
-20.9067

>  <SCORE.SYSTEM.CONST>
0

>  <SCORE.SYSTEM.DIHEDRAL>
4.46573

>  <SCORE.SYSTEM.POLAR>
-3.04383

>  <SCORE.SYSTEM.SOLV>
0.0684359

>  <SCORE.SYSTEM.VDW>
-5.3031

>  <SCORE.SYSTEM.norm>
-1.90061

>  <SCORE.heavy>
11

>  <SCORE.norm>
-4.45751

$$$$
P94512424
 OpenBabel12072022113D
libRbt.so/2013.1/901 2013/11/27
 14 14  0  0  0  0  0  0  0  0999 V2000
  -27.8630   13.2654  -16.5599 C   0  0  0  0  0  0  0  0  0  0  0  0
  -28.0673   14.6982  -16.0783 C   0  0  0  0  0  0  0  0  0  0  0  0
  -26.8236   15.5424  -16.3494 C   0  0  0  0  0  0  0  0  0  0  0  0
  -29.2354   15.2768  -16.7287 N   0  0  0  0  0  0  0  0  0  0  0  0
  -30.0352   16.1820  -16.0820 C   0  0  0  0  0  0  0  0  0  0  0  0
  -30.4873   15.9864  -14.9580 O   0  0  0  0  0  0  0  0  0  0  0  0
  -30.3275   17.3120  -16.8039 N   0  0  0  0  0  0  0  0  0  0  0  0
  -29.9104   17.6495  -18.1576 C   0  0  0  0  0  0  0  0  0  0  0  0
  -30.4276   19.0649  -18.3868 C   0  0  0  0  0  0  0  0  0  0  0  0
  -31.6533   19.1354  -17.4841 C   0  0  2  0  0  0  0  0  0  0  0  0
  -31.2241   18.3258  -16.2600 C   0  0  0  0  0  0  0  0  0  0  0  0
  -32.7635   18.5269  -18.1461 O   0  0  0  0  0  0  0  0  0  0  0  0
  -29.2042   15.3447  -17.7320 H   0  0  0  0  0  0  0  0  0  0  0  0
  -32.9368   19.0345  -18.9605 H   0  0  0  0  0  0  0  0  0  0  0  0
  1  2  1  0  0  0  0
  2  3  1  0  0  0  0
  2  4  1  0  0  0  0
  4  5  1  0  0  0  0
  4 13  1  0  0  0  0
  5  6  2  0  0  0  0
  5  7  1  0  0  0  0
  7  8  1  0  0  0  0
  7 11  1  0  0  0  0
  8  9  1  0  0  0  0
  9 10  1  0  0  0  0
 10 11  1  0  0  0  0
 10 12  1  6  0  0  0
 12 14  1  0  0  0  0
M  END
>  <CHROM.0>
-57.24904864,-58.68012557,-67.17481325,-42.95249392,-173.81525073,-59.04508095
-66.20256876,-57.33363533,-168.87441786

>  <CHROM.1>
146.66576546,-50.31426609,-61.57144433,-29.92371394,16.74130298,-16.84916508
-0.76435514,0.49133701,-0.79815116

>  <Name>
P94512424

>  <RI>
0

>  <Rbt.Current_Directory>
/home/fstefaniak/projects/zuza/docking/adenine/4TZX

>  <Rbt.Executable>
rbdock ($Id: //depot/dev/client3/rdock/2013.1/src/exe/rbdock.cxx#4 $)

>  <Rbt.Library>
libRbt.so (2013.1, Build901 2013/11/27)

>  <Rbt.Parameter_File>
/home/fstefaniak/progs/rDock//data/scripts/dock_solv.prm

>  <Rbt.Receptor>
4tzx.prm

>  <SCORE>
-58.7495

>  <SCORE.INTER>
-35.8046

>  <SCORE.INTER.CONST>
1

>  <SCORE.INTER.POLAR>
-3.83687

>  <SCORE.INTER.ROT>
2

>  <SCORE.INTER.SOLV>
13.6579

>  <SCORE.INTER.VDW>
-20.5661

>  <SCORE.INTER.norm>
-2.98371

>  <SCORE.INTRA>
-1.75425

>  <SCORE.INTRA.DIHEDRAL>
-1.58569

>  <SCORE.INTRA.DIHEDRAL.0>
2.93818

>  <SCORE.INTRA.POLAR>
0

>  <SCORE.INTRA.POLAR.0>
0

>  <SCORE.INTRA.REPUL>
0

>  <SCORE.INTRA.REPUL.0>
0

>  <SCORE.INTRA.SOLV>
-0.029938

>  <SCORE.INTRA.SOLV.lig_0>
-14.4313

>  <SCORE.INTRA.VDW>
-0.946437

>  <SCORE.INTRA.VDW.0>
0.920594

>  <SCORE.INTRA.norm>
-0.146187

>  <SCORE.RESTR>
0

>  <SCORE.RESTR.CAVITY>
0

>  <SCORE.RESTR.norm>
0

>  <SCORE.SYSTEM>
-21.1907

>  <SCORE.SYSTEM.CONST>
0

>  <SCORE.SYSTEM.DIHEDRAL>
4.63123

>  <SCORE.SYSTEM.POLAR>
-3.07263

>  <SCORE.SYSTEM.SOLV>
0.0148386

>  <SCORE.SYSTEM.VDW>
-5.43371

>  <SCORE.SYSTEM.norm>
-1.76589

>  <SCORE.heavy>
12

>  <SCORE.norm>
-4.89579

$$$$
P94512424
 OpenBabel12072022113D
libRbt.so/2013.1/901 2013/11/27
 14 14  0  0  0  0  0  0  0  0999 V2000
  -27.9249   13.2024  -16.6330 C   0  0  0  0  0  0  0  0  0  0  0  0
  -28.1303   14.6208  -16.1111 C   0  0  0  0  0  0  0  0  0  0  0  0
  -26.8786   15.4667  -16.3366 C   0  0  0  0  0  0  0  0  0  0  0  0
  -29.2853   15.2248  -16.7616 N   0  0  0  0  0  0  0  0  0  0  0  0
  -30.0575   16.1571  -16.1198 C   0  0  0  0  0  0  0  0  0  0  0  0
  -30.5045   15.9862  -14.9897 O   0  0  0  0  0  0  0  0  0  0  0  0
  -30.3287   17.2847  -16.8534 N   0  0  0  0  0  0  0  0  0  0  0  0
  -29.9151   17.5954  -18.2146 C   0  0  0  0  0  0  0  0  0  0  0  0
  -30.4001   19.0200  -18.4572 C   0  0  0  0  0  0  0  0  0  0  0  0
  -31.6160   19.1312  -17.5454 C   0  0  2  0  0  0  0  0  0  0  0  0
  -31.1959   18.3266  -16.3148 C   0  0  0  0  0  0  0  0  0  0  0  0
  -32.7461   18.5416  -18.1905 O   0  0  0  0  0  0  0  0  0  0  0  0
  -29.2567   15.2829  -17.7657 H   0  0  0  0  0  0  0  0  0  0  0  0
  -32.9401   19.0688  -18.9876 H   0  0  0  0  0  0  0  0  0  0  0  0
  1  2  1  0  0  0  0
  2  3  1  0  0  0  0
  2  4  1  0  0  0  0
  4  5  1  0  0  0  0
  4 13  1  0  0  0  0
  5  6  2  0  0  0  0
  5  7  1  0  0  0  0
  7  8  1  0  0  0  0
  7 11  1  0  0  0  0
  8  9  1  0  0  0  0
  9 10  1  0  0  0  0
 10 11  1  0  0  0  0
 10 12  1  6  0  0  0
 12 14  1  0  0  0  0
M  END
>  <CHROM.0>
-56.29704107,-58.03328196,-60.91124445,-43.33754232,-59.92695336,-58.33686114
-66.16018341,-60.08084991,-168.72898458

>  <CHROM.1>
149.50924058,-49.97023035,-64.20580191,-29.93770807,16.70802282,-16.89315264
-0.76966615,0.52098401,-0.81580012

>  <Name>
P94512424

>  <RI>
0

>  <Rbt.Current_Directory>
/home/fstefaniak/projects/zuza/docking/adenine/4TZX

>  <Rbt.Executable>
rbdock ($Id: //depot/dev/client3/rdock/2013.1/src/exe/rbdock.cxx#4 $)

>  <Rbt.Library>
libRbt.so (2013.1, Build901 2013/11/27)

>  <Rbt.Parameter_File>
/home/fstefaniak/progs/rDock//data/scripts/dock_solv.prm

>  <Rbt.Receptor>
4tzx.prm

>  <SCORE>
-58.5619

>  <SCORE.INTER>
-35.8382

>  <SCORE.INTER.CONST>
1

>  <SCORE.INTER.POLAR>
-3.81962

>  <SCORE.INTER.ROT>
2

>  <SCORE.INTER.SOLV>
13.7517

>  <SCORE.INTER.VDW>
-20.6773

>  <SCORE.INTER.norm>
-2.98652

>  <SCORE.INTRA>
-1.76061

>  <SCORE.INTRA.DIHEDRAL>
-1.60039

>  <SCORE.INTRA.DIHEDRAL.0>
2.93818

>  <SCORE.INTRA.POLAR>
0

>  <SCORE.INTRA.POLAR.0>
0

>  <SCORE.INTRA.REPUL>
0

>  <SCORE.INTRA.REPUL.0>
0

>  <SCORE.INTRA.SOLV>
-0.0244988

>  <SCORE.INTRA.SOLV.lig_0>
-14.4313

>  <SCORE.INTRA.VDW>
-0.948166

>  <SCORE.INTRA.VDW.0>
0.920594

>  <SCORE.INTRA.norm>
-0.146717

>  <SCORE.RESTR>
0

>  <SCORE.RESTR.CAVITY>
0

>  <SCORE.RESTR.norm>
0

>  <SCORE.SYSTEM>
-20.9631

>  <SCORE.SYSTEM.CONST>
0

>  <SCORE.SYSTEM.DIHEDRAL>
4.20214

>  <SCORE.SYSTEM.POLAR>
-3.08015

>  <SCORE.SYSTEM.SOLV>
0.207318

>  <SCORE.SYSTEM.VDW>
-5.17802

>  <SCORE.SYSTEM.norm>
-1.74692

>  <SCORE.heavy>
12

>  <SCORE.norm>
-4.88016

$$$$
P94512424
 OpenBabel12072022113D
libRbt.so/2013.1/901 2013/11/27
 14 14  0  0  0  0  0  0  0  0999 V2000
  -28.0219   13.1740  -16.4177 C   0  0  0  0  0  0  0  0  0  0  0  0
  -28.0925   14.6481  -16.0324 C   0  0  0  0  0  0  0  0  0  0  0  0
  -26.7809   15.3572  -16.3639 C   0  0  0  0  0  0  0  0  0  0  0  0
  -29.2104   15.2850  -16.7157 N   0  0  0  0  0  0  0  0  0  0  0  0
  -30.0010   16.2068  -16.0813 C   0  0  0  0  0  0  0  0  0  0  0  0
  -30.4467   16.0352  -14.9508 O   0  0  0  0  0  0  0  0  0  0  0  0
  -30.2921   17.3243  -16.8228 N   0  0  0  0  0  0  0  0  0  0  0  0
  -29.8822   17.6336  -18.1854 C   0  0  0  0  0  0  0  0  0  0  0  0
  -30.3934   19.0471  -18.4384 C   0  0  0  0  0  0  0  0  0  0  0  0
  -31.6127   19.1416  -17.5292 C   0  0  2  0  0  0  0  0  0  0  0  0
  -31.1796   18.3532  -16.2926 C   0  0  0  0  0  0  0  0  0  0  0  0
  -32.7304   18.5266  -18.1721 O   0  0  0  0  0  0  0  0  0  0  0  0
  -29.1357   15.3727  -17.7152 H   0  0  0  0  0  0  0  0  0  0  0  0
  -32.9274   19.0395  -18.9778 H   0  0  0  0  0  0  0  0  0  0  0  0
  1  2  1  0  0  0  0
  2  3  1  0  0  0  0
  2  4  1  0  0  0  0
  4  5  1  0  0  0  0
  4 13  1  0  0  0  0
  5  6  2  0  0  0  0
  5  7  1  0  0  0  0
  7  8  1  0  0  0  0
  7 11  1  0  0  0  0
  8  9  1  0  0  0  0
  9 10  1  0  0  0  0
 10 11  1  0  0  0  0
 10 12  1  6  0  0  0
 12 14  1  0  0  0  0
M  END
>  <CHROM.0>
-61.46945766,-60.59967334,-63.83025924,-43.75300758,-173.39111991,-61.98135286
-66.61415303,-57.27338820,-168.82996118

>  <CHROM.1>
140.20646759,-46.27763978,-63.64956235,-29.90937316,16.72142793,-16.84925079
0.78571796,-0.50262620,2.33745925

>  <Name>
P94512424

>  <RI>
0

>  <Rbt.Current_Directory>
/home/fstefaniak/projects/zuza/docking/adenine/4TZX

>  <Rbt.Executable>
rbdock ($Id: //depot/dev/client3/rdock/2013.1/src/exe/rbdock.cxx#4 $)

>  <Rbt.Library>
libRbt.so (2013.1, Build901 2013/11/27)

>  <Rbt.Parameter_File>
/home/fstefaniak/progs/rDock//data/scripts/dock_solv.prm

>  <Rbt.Receptor>
4tzx.prm

>  <SCORE>
-58.5417

>  <SCORE.INTER>
-35.7376

>  <SCORE.INTER.CONST>
1

>  <SCORE.INTER.POLAR>
-3.91759

>  <SCORE.INTER.ROT>
2

>  <SCORE.INTER.SOLV>
13.5903

>  <SCORE.INTER.VDW>
-20.2298

>  <SCORE.INTER.norm>
-2.97813

>  <SCORE.INTRA>
-1.52631

>  <SCORE.INTRA.DIHEDRAL>
-1.298

>  <SCORE.INTRA.DIHEDRAL.0>
2.93818

>  <SCORE.INTRA.POLAR>
0

>  <SCORE.INTRA.POLAR.0>
0

>  <SCORE.INTRA.REPUL>
0

>  <SCORE.INTRA.REPUL.0>
0

>  <SCORE.INTRA.SOLV>
-0.0340424

>  <SCORE.INTRA.SOLV.lig_0>
-14.4313

>  <SCORE.INTRA.VDW>
-0.860291

>  <SCORE.INTRA.VDW.0>
0.920594

>  <SCORE.INTRA.norm>
-0.127193

>  <SCORE.RESTR>
0

>  <SCORE.RESTR.CAVITY>
0

>  <SCORE.RESTR.norm>
0

>  <SCORE.SYSTEM>
-21.2778

>  <SCORE.SYSTEM.CONST>
0

>  <SCORE.SYSTEM.DIHEDRAL>
4.38898

>  <SCORE.SYSTEM.POLAR>
-3.0358

>  <SCORE.SYSTEM.SOLV>
0.00188317

>  <SCORE.SYSTEM.VDW>
-5.52952

>  <SCORE.SYSTEM.norm>
-1.77315

>  <SCORE.heavy>
12

>  <SCORE.norm>
-4.87848

$$$$
P94524995
 OpenBabel12072022113D
libRbt.so/2013.1/901 2013/11/27
 14 14  0  0  0  0  0  0  0  0999 V2000
  -30.6538   18.6578  -18.7415 C   0  0  0  0  0  0  0  0  0  0  0  0
  -30.3258   18.2445  -17.3179 C   0  0  0  0  0  0  0  0  0  0  0  0
  -29.8803   16.8731  -17.2503 N   0  0  0  0  0  0  0  0  0  0  0  0
  -29.7771   16.1834  -16.0606 C   0  0  0  0  0  0  0  0  0  0  0  0
  -30.1782   16.6164  -14.9841 O   0  0  0  0  0  0  0  0  0  0  0  0
  -29.1800   14.7790  -16.2118 C   0  0  0  0  0  0  0  0  0  0  0  0
  -27.7869   14.8308  -16.7144 N   0  0  0  0  0  0  0  0  0  0  0  0
  -27.0148   15.9183  -16.0929 C   0  0  0  0  0  0  0  0  0  0  0  0
  -25.5875   15.5295  -16.4393 C   0  0  0  0  0  0  0  0  0  0  0  0
  -25.5793   14.0212  -16.2382 C   0  0  2  0  0  0  0  0  0  0  0  0
  -27.0526   13.6020  -16.3630 C   0  0  0  0  0  0  0  0  0  0  0  0
  -25.0792   13.7381  -14.9325 O   0  0  0  0  0  0  0  0  0  0  0  0
  -29.3665   16.4642  -18.0269 H   0  0  0  0  0  0  0  0  0  0  0  0
  -24.1706   14.0821  -14.8861 H   0  0  0  0  0  0  0  0  0  0  0  0
  1  2  1  0  0  0  0
  2  3  1  0  0  0  0
  3  4  1  0  0  0  0
  3 13  1  0  0  0  0
  4  5  2  0  0  0  0
  4  6  1  0  0  0  0
  6  7  1  0  0  0  0
  7  8  1  0  0  0  0
  7 11  1  0  0  0  0
  8  9  1  0  0  0  0
  9 10  1  0  0  0  0
 10 11  1  0  0  0  0
 10 12  1  1  0  0  0
 12 14  1  0  0  0  0
M  END
>  <CHROM.0>
-58.35731961,46.11118958,-63.06355305,-42.27555033,-57.04393737,-53.95479483
-63.39453088,-177.21347255,-167.91833808

>  <CHROM.1>
-166.81883235,62.93297755,40.80776000,-61.19504925,-28.15643725,15.75285283
-16.43062859,-2.50381545,-0.30958443,2.34017385

>  <Name>
P94524995

>  <RI>
0

>  <Rbt.Current_Directory>
/home/fstefaniak/projects/zuza/docking/adenine/4TZX

>  <Rbt.Executable>
rbdock ($Id: //depot/dev/client3/rdock/2013.1/src/exe/rbdock.cxx#4 $)

>  <Rbt.Library>
libRbt.so (2013.1, Build901 2013/11/27)

>  <Rbt.Parameter_File>
/home/fstefaniak/progs/rDock//data/scripts/dock_solv.prm

>  <Rbt.Receptor>
4tzx.prm

>  <SCORE>
-54.7277

>  <SCORE.INTER>
-37.1026

>  <SCORE.INTER.CONST>
1

>  <SCORE.INTER.POLAR>
-4.3058

>  <SCORE.INTER.ROT>
3

>  <SCORE.INTER.SOLV>
12.3455

>  <SCORE.INTER.VDW>
-20.0976

>  <SCORE.INTER.norm>
-3.09189

>  <SCORE.INTRA>
2.31667

>  <SCORE.INTRA.DIHEDRAL>
0.581149

>  <SCORE.INTRA.DIHEDRAL.0>
2.19065

>  <SCORE.INTRA.POLAR>
0.175644

>  <SCORE.INTRA.POLAR.0>
-0.175644

>  <SCORE.INTRA.REPUL>
0

>  <SCORE.INTRA.REPUL.0>
0

>  <SCORE.INTRA.SOLV>
-0.238425

>  <SCORE.INTRA.SOLV.lig_0>
-17.6086

>  <SCORE.INTRA.VDW>
1.54812

>  <SCORE.INTRA.VDW.0>
-0.952511

>  <SCORE.INTRA.norm>
0.193056

>  <SCORE.RESTR>
0

>  <SCORE.RESTR.CAVITY>
0

>  <SCORE.RESTR.norm>
0

>  <SCORE.SYSTEM>
-19.9418

>  <SCORE.SYSTEM.CONST>
0

>  <SCORE.SYSTEM.DIHEDRAL>
5.4051

>  <SCORE.SYSTEM.POLAR>
-3.16807

>  <SCORE.SYSTEM.SOLV>
0.192913

>  <SCORE.SYSTEM.VDW>
-4.60027

>  <SCORE.SYSTEM.norm>
-1.66181

>  <SCORE.heavy>
12

>  <SCORE.norm>
-4.56065

$$$$
P94524995
 OpenBabel12072022113D
libRbt.so/2013.1/901 2013/11/27
 14 14  0  0  0  0  0  0  0  0999 V2000
  -30.5620   18.6769  -18.7636 C   0  0  0  0  0  0  0  0  0  0  0  0
  -30.3366   18.2692  -17.3186 C   0  0  0  0  0  0  0  0  0  0  0  0
  -29.8810   16.9035  -17.2149 N   0  0  0  0  0  0  0  0  0  0  0  0
  -29.7925   16.2393  -16.0097 C   0  0  0  0  0  0  0  0  0  0  0  0
  -30.2157   16.6909  -14.9493 O   0  0  0  0  0  0  0  0  0  0  0  0
  -29.1811   14.8374  -16.1215 C   0  0  0  0  0  0  0  0  0  0  0  0
  -27.8030   14.8859  -16.6638 N   0  0  0  0  0  0  0  0  0  0  0  0
  -27.0164   15.9828  -16.0779 C   0  0  0  0  0  0  0  0  0  0  0  0
  -25.5984   15.5929  -16.4596 C   0  0  0  0  0  0  0  0  0  0  0  0
  -25.5807   14.0872  -16.2402 C   0  0  2  0  0  0  0  0  0  0  0  0
  -27.0559   13.6632  -16.3181 C   0  0  0  0  0  0  0  0  0  0  0  0
  -25.0432   13.8215  -14.9458 O   0  0  0  0  0  0  0  0  0  0  0  0
  -29.3504   16.4831  -17.9740 H   0  0  0  0  0  0  0  0  0  0  0  0
  -24.1226   14.1350  -14.9411 H   0  0  0  0  0  0  0  0  0  0  0  0
  1  2  1  0  0  0  0
  2  3  1  0  0  0  0
  3  4  1  0  0  0  0
  3 13  1  0  0  0  0
  4  5  2  0  0  0  0
  4  6  1  0  0  0  0
  6  7  1  0  0  0  0
  7  8  1  0  0  0  0
  7 11  1  0  0  0  0
  8  9  1  0  0  0  0
  9 10  1  0  0  0  0
 10 11  1  0  0  0  0
 10 12  1  1  0  0  0
 12 14  1  0  0  0  0
M  END
>  <CHROM.0>
-60.25623951,48.26161266,-53.50772136,-42.72971119,-175.20485358,-55.90543447
-62.41141863,-170.55278377,-168.51033971

>  <CHROM.1>
-170.31448705,60.15192815,42.48452215,-63.48675009,-28.15301488,15.80761420
-16.40965598,-2.51355402,-0.31790871,2.32535307

>  <Name>
P94524995

>  <RI>
0

>  <Rbt.Current_Directory>
/home/fstefaniak/projects/zuza/docking/adenine/4TZX

>  <Rbt.Executable>
rbdock ($Id: //depot/dev/client3/rdock/2013.1/src/exe/rbdock.cxx#4 $)

>  <Rbt.Library>
libRbt.so (2013.1, Build901 2013/11/27)

>  <Rbt.Parameter_File>
/home/fstefaniak/progs/rDock//data/scripts/dock_solv.prm

>  <Rbt.Receptor>
4tzx.prm

>  <SCORE>
-54.5886

>  <SCORE.INTER>
-36.8674

>  <SCORE.INTER.CONST>
1

>  <SCORE.INTER.POLAR>
-4.30365

>  <SCORE.INTER.ROT>
3

>  <SCORE.INTER.SOLV>
12.3652

>  <SCORE.INTER.VDW>
-19.9545

>  <SCORE.INTER.norm>
-3.07228

>  <SCORE.INTRA>
2.21409

>  <SCORE.INTRA.DIHEDRAL>
0.579264

>  <SCORE.INTRA.DIHEDRAL.0>
2.19065

>  <SCORE.INTRA.POLAR>
0.175644

>  <SCORE.INTRA.POLAR.0>
-0.175644

>  <SCORE.INTRA.REPUL>
0

>  <SCORE.INTRA.REPUL.0>
0

>  <SCORE.INTRA.SOLV>
-0.221521

>  <SCORE.INTRA.SOLV.lig_0>
-17.6086

>  <SCORE.INTRA.VDW>
1.43803

>  <SCORE.INTRA.VDW.0>
-0.952511

>  <SCORE.INTRA.norm>
0.184507

>  <SCORE.RESTR>
0

>  <SCORE.RESTR.CAVITY>
0

>  <SCORE.RESTR.norm>
0

>  <SCORE.SYSTEM>
-19.9352

>  <SCORE.SYSTEM.CONST>
0

>  <SCORE.SYSTEM.DIHEDRAL>
5.47923

>  <SCORE.SYSTEM.POLAR>
-3.15888

>  <SCORE.SYSTEM.SOLV>
0.00589612

>  <SCORE.SYSTEM.VDW>
-4.58895

>  <SCORE.SYSTEM.norm>
-1.66127

>  <SCORE.heavy>
12

>  <SCORE.norm>
-4.54905

$$$$
P94524995
 OpenBabel12072022113D
libRbt.so/2013.1/901 2013/11/27
 14 14  0  0  0  0  0  0  0  0999 V2000
  -30.6666   18.6396  -18.7214 C   0  0  0  0  0  0  0  0  0  0  0  0
  -30.2906   18.2809  -17.2948 C   0  0  0  0  0  0  0  0  0  0  0  0
  -29.8491   16.9107  -17.1885 N   0  0  0  0  0  0  0  0  0  0  0  0
  -29.8139   16.2326  -15.9882 C   0  0  0  0  0  0  0  0  0  0  0  0
  -30.2761   16.6756  -14.9406 O   0  0  0  0  0  0  0  0  0  0  0  0
  -29.2084   14.8275  -16.0914 C   0  0  0  0  0  0  0  0  0  0  0  0
  -27.8337   14.8659  -16.6433 N   0  0  0  0  0  0  0  0  0  0  0  0
  -27.0277   15.9422  -16.0457 C   0  0  0  0  0  0  0  0  0  0  0  0
  -25.6182   15.5391  -16.4445 C   0  0  0  0  0  0  0  0  0  0  0  0
  -25.6197   14.0299  -16.2496 C   0  0  2  0  0  0  0  0  0  0  0  0
  -27.1011   13.6276  -16.3232 C   0  0  0  0  0  0  0  0  0  0  0  0
  -25.0764   13.7358  -14.9638 O   0  0  0  0  0  0  0  0  0  0  0  0
  -29.2915   16.4948  -17.9305 H   0  0  0  0  0  0  0  0  0  0  0  0
  -24.1585   14.0572  -14.9534 H   0  0  0  0  0  0  0  0  0  0  0  0
  1  2  1  0  0  0  0
  2  3  1  0  0  0  0
  3  4  1  0  0  0  0
  3 13  1  0  0  0  0
  4  5  2  0  0  0  0
  4  6  1  0  0  0  0
  6  7  1  0  0  0  0
  7  8  1  0  0  0  0
  7 11  1  0  0  0  0
  8  9  1  0  0  0  0
  9 10  1  0  0  0  0
 10 11  1  0  0  0  0
 10 12  1  1  0  0  0
 12 14  1  0  0  0  0
M  END
>  <CHROM.0>
-58.47401894,52.81687774,-71.25310299,-41.32422206,-53.96227585,-61.79115954
-170.70093563,-174.09663868,-166.58816209

>  <CHROM.1>
-161.24931456,57.21988278,44.05025611,-62.05424543,-28.17973058,15.77830165
-16.39423514,-2.51389623,-0.32802294,2.32782154

>  <Name>
P94524995

>  <RI>
0

>  <Rbt.Current_Directory>
/home/fstefaniak/projects/zuza/docking/adenine/4TZX

>  <Rbt.Executable>
rbdock ($Id: //depot/dev/client3/rdock/2013.1/src/exe/rbdock.cxx#4 $)

>  <Rbt.Library>
libRbt.so (2013.1, Build901 2013/11/27)

>  <Rbt.Parameter_File>
/home/fstefaniak/progs/rDock//data/scripts/dock_solv.prm

>  <Rbt.Receptor>
4tzx.prm

>  <SCORE>
-53.7766

>  <SCORE.INTER>
-36.2146

>  <SCORE.INTER.CONST>
1

>  <SCORE.INTER.POLAR>
-4.3349

>  <SCORE.INTER.ROT>
3

>  <SCORE.INTER.SOLV>
12.2332

>  <SCORE.INTER.VDW>
-19.3712

>  <SCORE.INTER.norm>
-3.01789

>  <SCORE.INTRA>
1.97048

>  <SCORE.INTRA.DIHEDRAL>
0.362417

>  <SCORE.INTRA.DIHEDRAL.0>
2.19065

>  <SCORE.INTRA.POLAR>
0.174146

>  <SCORE.INTRA.POLAR.0>
-0.175644

>  <SCORE.INTRA.REPUL>
0

>  <SCORE.INTRA.REPUL.0>
0

>  <SCORE.INTRA.SOLV>
-0.196915

>  <SCORE.INTRA.SOLV.lig_0>
-17.6086

>  <SCORE.INTRA.VDW>
1.29563

>  <SCORE.INTRA.VDW.0>
-0.952511

>  <SCORE.INTRA.norm>
0.164207

>  <SCORE.RESTR>
0

>  <SCORE.RESTR.CAVITY>
0

>  <SCORE.RESTR.norm>
0

>  <SCORE.SYSTEM>
-19.5324

>  <SCORE.SYSTEM.CONST>
0

>  <SCORE.SYSTEM.DIHEDRAL>
5.99138

>  <SCORE.SYSTEM.POLAR>
-3.10091

>  <SCORE.SYSTEM.SOLV>
0.124069

>  <SCORE.SYSTEM.VDW>
-4.72372

>  <SCORE.SYSTEM.norm>
-1.6277

>  <SCORE.heavy>
12

>  <SCORE.norm>
-4.48138

$$$$
P94526040
 OpenBabel12072022113D
libRbt.so/2013.1/901 2013/11/27
 14 14  0  0  0  0  0  0  0  0999 V2000
  -28.7968   15.6646  -15.9457 C   0  0  0  0  0  0  0  0  0  0  0  0
  -29.2945   17.1051  -15.7977 C   0  0  2  0  0  0  0  0  0  0  0  0
  -29.8072   17.3585  -14.3610 C   0  0  0  0  0  0  0  0  0  0  0  0
  -30.9804   17.2895  -14.0115 O   0  0  0  0  0  0  0  0  0  0  0  0
  -28.8167   17.6109  -13.4485 N   0  0  0  0  0  0  0  0  0  0  0  0
  -30.3170   17.5543  -16.7719 N   0  0  0  0  0  0  0  0  0  0  0  0
  -30.8858   18.8689  -16.4862 C   0  0  0  0  0  0  0  0  0  0  0  0
  -31.6688   19.1553  -17.7528 C   0  0  0  0  0  0  0  0  0  0  0  0
  -30.7323   18.6718  -18.8495 C   0  0  1  0  0  0  0  0  0  0  0  0
  -29.9042   17.5598  -18.1855 C   0  0  0  0  0  0  0  0  0  0  0  0
  -31.4603   18.2025  -19.9727 O   0  0  0  0  0  0  0  0  0  0  0  0
  -28.5563   18.5841  -13.3239 H   0  0  0  0  0  0  0  0  0  0  0  0
  -28.7597   16.9902  -12.6541 H   0  0  0  0  0  0  0  0  0  0  0  0
  -32.0467   17.4911  -19.6629 H   0  0  0  0  0  0  0  0  0  0  0  0
  2  3  1  0  0  0  0
  2  6  1  0  0  0  0
  2  1  1  1  0  0  0
  3  4  2  0  0  0  0
  3  5  1  0  0  0  0
  5 12  1  0  0  0  0
  5 13  1  0  0  0  0
  6  7  1  0  0  0  0
  6 10  1  0  0  0  0
  7  8  1  0  0  0  0
  8  9  1  0  0  0  0
  9 10  1  0  0  0  0
  9 11  1  6  0  0  0
 11 14  1  0  0  0  0
M  END
>  <CHROM.0>
-55.22426368,-60.24204717,-65.90430047,-43.33130499,-57.97663510,-60.10488392
-65.05573458,-173.48752821,-169.79942220

>  <CHROM.1>
-96.29083208,172.41247700,90.31101755,-57.65574473,-30.25730642,17.72017975
-16.50862218,-1.08798182,0.81813441,-1.67321108

>  <Name>
P94526040

>  <RI>
0

>  <Rbt.Current_Directory>
/home/fstefaniak/projects/zuza/docking/adenine/4TZX

>  <Rbt.Executable>
rbdock ($Id: //depot/dev/client3/rdock/2013.1/src/exe/rbdock.cxx#4 $)

>  <Rbt.Library>
libRbt.so (2013.1, Build901 2013/11/27)

>  <Rbt.Parameter_File>
/home/fstefaniak/progs/rDock//data/scripts/dock_solv.prm

>  <Rbt.Receptor>
4tzx.prm

>  <SCORE>
-47.8056

>  <SCORE.INTER>
-26.825

>  <SCORE.INTER.CONST>
1

>  <SCORE.INTER.POLAR>
-3.59576

>  <SCORE.INTER.ROT>
3

>  <SCORE.INTER.SOLV>
15.0729

>  <SCORE.INTER.VDW>
-16.5217

>  <SCORE.INTER.norm>
-2.43864

>  <SCORE.INTRA>
0.00740834

>  <SCORE.INTRA.DIHEDRAL>
0.369891

>  <SCORE.INTRA.DIHEDRAL.0>
1.56335

>  <SCORE.INTRA.POLAR>
0.0716951

>  <SCORE.INTRA.POLAR.0>
-0.0716951

>  <SCORE.INTRA.REPUL>
0

>  <SCORE.INTRA.REPUL.0>
0

>  <SCORE.INTRA.SOLV>
-0.227002

>  <SCORE.INTRA.SOLV.lig_0>
-16.709

>  <SCORE.INTRA.VDW>
-0.307799

>  <SCORE.INTRA.VDW.0>
1.47335

>  <SCORE.INTRA.norm>
0.000673486

>  <SCORE.RESTR>
0

>  <SCORE.RESTR.CAVITY>
0

>  <SCORE.RESTR.norm>
0

>  <SCORE.SYSTEM>
-20.988

>  <SCORE.SYSTEM.CONST>
0

>  <SCORE.SYSTEM.DIHEDRAL>
4.42215

>  <SCORE.SYSTEM.POLAR>
-3.06345

>  <SCORE.SYSTEM.SOLV>
0.0706845

>  <SCORE.SYSTEM.VDW>
-5.27813

>  <SCORE.SYSTEM.norm>
-1.908

>  <SCORE.heavy>
11

>  <SCORE.norm>
-4.34597

$$$$
P94526040
 OpenBabel12072022113D
libRbt.so/2013.1/901 2013/11/27
 14 14  0  0  0  0  0  0  0  0999 V2000
  -29.5703   15.6746  -15.8175 C   0  0  0  0  0  0  0  0  0  0  0  0
  -29.4088   17.1857  -15.6300 C   0  0  2  0  0  0  0  0  0  0  0  0
  -29.7853   17.5981  -14.1880 C   0  0  0  0  0  0  0  0  0  0  0  0
  -30.9304   17.7538  -13.7782 O   0  0  0  0  0  0  0  0  0  0  0  0
  -28.7145   17.7193  -13.3417 N   0  0  0  0  0  0  0  0  0  0  0  0
  -30.1283   18.0518  -16.5936 N   0  0  0  0  0  0  0  0  0  0  0  0
  -29.7385   17.8568  -17.9876 C   0  0  0  0  0  0  0  0  0  0  0  0
  -30.7953   18.6561  -18.7249 C   0  0  0  0  0  0  0  0  0  0  0  0
  -32.0708   18.3127  -17.9707 C   0  0  1  0  0  0  0  0  0  0  0  0
  -31.5989   17.9915  -16.5433 C   0  0  0  0  0  0  0  0  0  0  0  0
  -32.9898   19.3926  -18.0030 O   0  0  0  0  0  0  0  0  0  0  0  0
  -28.3011   18.6434  -13.2677 H   0  0  0  0  0  0  0  0  0  0  0  0
  -28.7053   17.1197  -12.5293 H   0  0  0  0  0  0  0  0  0  0  0  0
  -33.0734   19.6760  -18.9296 H   0  0  0  0  0  0  0  0  0  0  0  0
  2  3  1  0  0  0  0
  2  6  1  0  0  0  0
  2  1  1  6  0  0  0
  3  4  2  0  0  0  0
  3  5  1  0  0  0  0
  5 12  1  0  0  0  0
  5 13  1  0  0  0  0
  6  7  1  0  0  0  0
  6 10  1  0  0  0  0
  7  8  1  0  0  0  0
  8  9  1  0  0  0  0
  9 10  1  0  0  0  0
  9 11  1  1  0  0  0
 11 14  1  0  0  0  0
M  END
>  <CHROM.0>
-57.99643684,-64.56210923,-73.01646875,-42.33783174,-57.97410974,-67.68127318
-169.00512581,-61.42128832,-169.82930270

>  <CHROM.1>
-79.95746342,-60.23969713,92.10022570,49.85701143,-30.54825077,17.85678842
-16.21702217,-0.96079888,0.57244252,-1.59367947

>  <Name>
P94526040

>  <RI>
0

>  <Rbt.Current_Directory>
/home/fstefaniak/projects/zuza/docking/adenine/4TZX

>  <Rbt.Executable>
rbdock ($Id: //depot/dev/client3/rdock/2013.1/src/exe/rbdock.cxx#4 $)

>  <Rbt.Library>
libRbt.so (2013.1, Build901 2013/11/27)

>  <Rbt.Parameter_File>
/home/fstefaniak/progs/rDock//data/scripts/dock_solv.prm

>  <Rbt.Receptor>
4tzx.prm

>  <SCORE>
-47.4994

>  <SCORE.INTER>
-27.7784

>  <SCORE.INTER.CONST>
1

>  <SCORE.INTER.POLAR>
-4.21357

>  <SCORE.INTER.ROT>
3

>  <SCORE.INTER.SOLV>
15.46

>  <SCORE.INTER.VDW>
-15.227

>  <SCORE.INTER.norm>
-2.52531

>  <SCORE.INTRA>
0.720056

>  <SCORE.INTRA.DIHEDRAL>
1.46412

>  <SCORE.INTRA.DIHEDRAL.0>
1.56335

>  <SCORE.INTRA.POLAR>
0.0716951

>  <SCORE.INTRA.POLAR.0>
-0.0716951

>  <SCORE.INTRA.REPUL>
0

>  <SCORE.INTRA.REPUL.0>
0

>  <SCORE.INTRA.SOLV>
-0.380798

>  <SCORE.INTRA.SOLV.lig_0>
-16.709

>  <SCORE.INTRA.VDW>
-0.0653688

>  <SCORE.INTRA.VDW.0>
1.47335

>  <SCORE.INTRA.norm>
0.0654597

>  <SCORE.RESTR>
0

>  <SCORE.RESTR.CAVITY>
0

>  <SCORE.RESTR.norm>
0

>  <SCORE.SYSTEM>
-20.441

>  <SCORE.SYSTEM.CONST>
0

>  <SCORE.SYSTEM.DIHEDRAL>
5.66805

>  <SCORE.SYSTEM.POLAR>
-3.02851

>  <SCORE.SYSTEM.SOLV>
0.144504

>  <SCORE.SYSTEM.VDW>
-5.46984

>  <SCORE.SYSTEM.norm>
-1.85828

>  <SCORE.heavy>
11

>  <SCORE.norm>
-4.31812

$$$$
P94526040
 OpenBabel12072022113D
libRbt.so/2013.1/901 2013/11/27
 14 14  0  0  0  0  0  0  0  0999 V2000
  -29.4216   15.6786  -15.8390 C   0  0  0  0  0  0  0  0  0  0  0  0
  -29.3185   17.1938  -15.6436 C   0  0  2  0  0  0  0  0  0  0  0  0
  -29.7418   17.5873  -14.2094 C   0  0  0  0  0  0  0  0  0  0  0  0
  -30.9005   17.7101  -13.8276 O   0  0  0  0  0  0  0  0  0  0  0  0
  -28.6961   17.7317  -13.3357 N   0  0  0  0  0  0  0  0  0  0  0  0
  -30.0467   18.0372  -16.6208 N   0  0  0  0  0  0  0  0  0  0  0  0
  -29.6882   17.7910  -18.0152 C   0  0  0  0  0  0  0  0  0  0  0  0
  -30.7498   18.5796  -18.7572 C   0  0  0  0  0  0  0  0  0  0  0  0
  -32.0137   18.2784  -17.9663 C   0  0  1  0  0  0  0  0  0  0  0  0
  -31.5165   17.9982  -16.5389 C   0  0  0  0  0  0  0  0  0  0  0  0
  -32.9194   19.3688  -18.0160 O   0  0  0  0  0  0  0  0  0  0  0  0
  -28.3072   18.6654  -13.2489 H   0  0  0  0  0  0  0  0  0  0  0  0
  -28.6930   17.1300  -12.5249 H   0  0  0  0  0  0  0  0  0  0  0  0
  -33.0075   19.6317  -18.9482 H   0  0  0  0  0  0  0  0  0  0  0  0
  2  3  1  0  0  0  0
  2  6  1  0  0  0  0
  2  1  1  6  0  0  0
  3  4  2  0  0  0  0
  3  5  1  0  0  0  0
  5 12  1  0  0  0  0
  5 13  1  0  0  0  0
  6  7  1  0  0  0  0
  6 10  1  0  0  0  0
  7  8  1  0  0  0  0
  8  9  1  0  0  0  0
  9 10  1  0  0  0  0
  9 11  1  1  0  0  0
 11 14  1  0  0  0  0
M  END
>  <CHROM.0>
-61.98082009,57.53775693,-56.15185964,-39.51169760,-176.19256683,-66.05407829
-61.96361072,-58.51444984,-168.19704998

>  <CHROM.1>
-80.52015781,-55.97395988,91.88628878,48.96425796,-30.48342415,17.83506809
-16.23453372,-0.96090941,0.57251547,-1.60035654

>  <Name>
P94526040

>  <RI>
0

>  <Rbt.Current_Directory>
/home/fstefaniak/projects/zuza/docking/adenine/4TZX

>  <Rbt.Executable>
rbdock ($Id: //depot/dev/client3/rdock/2013.1/src/exe/rbdock.cxx#4 $)

>  <Rbt.Library>
libRbt.so (2013.1, Build901 2013/11/27)

>  <Rbt.Parameter_File>
/home/fstefaniak/progs/rDock//data/scripts/dock_solv.prm

>  <Rbt.Receptor>
4tzx.prm

>  <SCORE>
-47.0158

>  <SCORE.INTER>
-28.1998

>  <SCORE.INTER.CONST>
1

>  <SCORE.INTER.POLAR>
-4.23994

>  <SCORE.INTER.ROT>
3

>  <SCORE.INTER.SOLV>
15.3366

>  <SCORE.INTER.VDW>
-15.379

>  <SCORE.INTER.norm>
-2.56362

>  <SCORE.INTRA>
1.1999

>  <SCORE.INTRA.DIHEDRAL>
1.59181

>  <SCORE.INTRA.DIHEDRAL.0>
1.56335

>  <SCORE.INTRA.POLAR>
0.0716951

>  <SCORE.INTRA.POLAR.0>
-0.0716951

>  <SCORE.INTRA.REPUL>
0

>  <SCORE.INTRA.REPUL.0>
0

>  <SCORE.INTRA.SOLV>
-0.351065

>  <SCORE.INTRA.SOLV.lig_0>
-16.709

>  <SCORE.INTRA.VDW>
0.335767

>  <SCORE.INTRA.VDW.0>
1.47335

>  <SCORE.INTRA.norm>
0.109082

>  <SCORE.RESTR>
0

>  <SCORE.RESTR.CAVITY>
0

>  <SCORE.RESTR.norm>
0

>  <SCORE.SYSTEM>
-20.0159

>  <SCORE.SYSTEM.CONST>
0

>  <SCORE.SYSTEM.DIHEDRAL>
4.93791

>  <SCORE.SYSTEM.POLAR>
-3.1103

>  <SCORE.SYSTEM.SOLV>
0.0926808

>  <SCORE.SYSTEM.VDW>
-4.6531

>  <SCORE.SYSTEM.norm>
-1.81962

>  <SCORE.heavy>
11

>  <SCORE.norm>
-4.27416

$$$$
P94526490
 OpenBabel12072022113D
libRbt.so/2013.1/901 2013/11/27
 11 12  0  0  0  0  0  0  0  0999 V2000
  -26.9427   13.1834  -16.9465 C   0  0  0  0  0  0  0  0  0  0  0  0
  -28.1759   14.0769  -16.8105 C   0  0  0  0  0  0  0  0  0  0  0  0
  -27.6997   15.2816  -16.1167 N   0  0  0  0  0  0  0  0  0  0  0  0
  -26.3339   15.4885  -16.6291 C   0  0  0  0  0  0  0  0  0  0  0  0
  -25.7714   14.0717  -16.5438 C   0  0  1  0  0  0  0  0  0  0  0  0
  -25.4040   13.7786  -15.1931 O   0  0  0  0  0  0  0  0  0  0  0  0
  -28.5883   16.4240  -16.3480 C   0  0  0  0  0  0  0  0  0  0  0  0
  -29.8947   16.2207  -15.6456 C   0  0  2  0  0  0  0  0  0  0  0  0
  -30.8238   17.3745  -15.3769 C   0  0  0  0  0  0  0  0  0  0  0  0
  -29.9808   16.8311  -14.3497 O   0  0  0  0  0  0  0  0  0  0  0  0
  -24.5597   14.2499  -15.0494 H   0  0  0  0  0  0  0  0  0  0  0  0
  1  2  1  0  0  0  0
  1  5  1  0  0  0  0
  2  3  1  0  0  0  0
  3  4  1  0  0  0  0
  3  7  1  0  0  0  0
  4  5  1  0  0  0  0
  5  6  1  1  0  0  0
  6 11  1  0  0  0  0
  8  9  1  0  0  0  0
  8 10  1  0  0  0  0
  8  7  1  6  0  0  0
  9 10  1  0  0  0  0
M  END
>  <CHROM.0>
-59.59317525,-62.62612049,-64.47237223,-43.17439423,-177.11276805,-61.65244352
-69.13386919,-176.15757738,-169.71676761

>  <CHROM.1>
69.78343549,169.90570125,162.04146305,-27.93199004,15.26856760,-15.95415663
0.55662405,0.36243727,-2.28909484

>  <Name>
P94526490

>  <RI>
0

>  <Rbt.Current_Directory>
/home/fstefaniak/projects/zuza/docking/adenine/4TZX

>  <Rbt.Executable>
rbdock ($Id: //depot/dev/client3/rdock/2013.1/src/exe/rbdock.cxx#4 $)

>  <Rbt.Library>
libRbt.so (2013.1, Build901 2013/11/27)

>  <Rbt.Parameter_File>
/home/fstefaniak/progs/rDock//data/scripts/dock_solv.prm

>  <Rbt.Receptor>
4tzx.prm

>  <SCORE>
-48.0054

>  <SCORE.INTER>
-26.5723

>  <SCORE.INTER.CONST>
1

>  <SCORE.INTER.POLAR>
-2.84158

>  <SCORE.INTER.ROT>
2

>  <SCORE.INTER.SOLV>
8.43722

>  <SCORE.INTER.VDW>
-15.9887

>  <SCORE.INTER.norm>
-2.65723

>  <SCORE.INTRA>
-0.180717

>  <SCORE.INTRA.DIHEDRAL>
0.237981

>  <SCORE.INTRA.DIHEDRAL.0>
3.67346

>  <SCORE.INTRA.POLAR>
0.047351

>  <SCORE.INTRA.POLAR.0>
-0.047351

>  <SCORE.INTRA.REPUL>
0

>  <SCORE.INTRA.REPUL.0>
0

>  <SCORE.INTRA.SOLV>
0.00295806

>  <SCORE.INTRA.SOLV.lig_0>
-11.6873

>  <SCORE.INTRA.VDW>
-0.46218

>  <SCORE.INTRA.VDW.0>
0.492532

>  <SCORE.INTRA.norm>
-0.0180717

>  <SCORE.RESTR>
0

>  <SCORE.RESTR.CAVITY>
0

>  <SCORE.RESTR.norm>
0

>  <SCORE.SYSTEM>
-21.2523

>  <SCORE.SYSTEM.CONST>
0

>  <SCORE.SYSTEM.DIHEDRAL>
4.47975

>  <SCORE.SYSTEM.POLAR>
-3.03211

>  <SCORE.SYSTEM.SOLV>
-0.136657

>  <SCORE.SYSTEM.VDW>
-5.50888

>  <SCORE.SYSTEM.norm>
-2.12523

>  <SCORE.heavy>
10

>  <SCORE.norm>
-4.80054

$$$$
P94526490
 OpenBabel12072022113D
libRbt.so/2013.1/901 2013/11/27
 11 12  0  0  0  0  0  0  0  0999 V2000
  -26.9648   13.2219  -16.9006 C   0  0  0  0  0  0  0  0  0  0  0  0
  -28.1801   14.1322  -16.7217 C   0  0  0  0  0  0  0  0  0  0  0  0
  -27.6699   15.3154  -16.0151 N   0  0  0  0  0  0  0  0  0  0  0  0
  -26.3118   15.5103  -16.5518 C   0  0  0  0  0  0  0  0  0  0  0  0
  -25.7710   14.0832  -16.5055 C   0  0  1  0  0  0  0  0  0  0  0  0
  -25.3808   13.7580  -15.1686 O   0  0  0  0  0  0  0  0  0  0  0  0
  -28.5442   16.4761  -16.2058 C   0  0  0  0  0  0  0  0  0  0  0  0
  -29.8863   16.2264  -15.5912 C   0  0  2  0  0  0  0  0  0  0  0  0
  -30.8678   17.3480  -15.3782 C   0  0  0  0  0  0  0  0  0  0  0  0
  -30.0762   16.8248  -14.3007 O   0  0  0  0  0  0  0  0  0  0  0  0
  -24.5434   14.2405  -15.0218 H   0  0  0  0  0  0  0  0  0  0  0  0
  1  2  1  0  0  0  0
  1  5  1  0  0  0  0
  2  3  1  0  0  0  0
  3  4  1  0  0  0  0
  3  7  1  0  0  0  0
  4  5  1  0  0  0  0
  5  6  1  1  0  0  0
  6 11  1  0  0  0  0
  8  9  1  0  0  0  0
  8 10  1  0  0  0  0
  8  7  1  6  0  0  0
  9 10  1  0  0  0  0
M  END
>  <CHROM.0>
-59.26602636,-171.24159389,-71.34707759,-43.59396913,-56.66071957,-62.89207291
-168.42276850,-58.04842393,-168.04949790

>  <CHROM.1>
64.39185996,172.01877787,166.57587646,-27.93663990,15.28419278,-15.89282724
0.56061796,0.33205118,-2.32787226

>  <Name>
P94526490

>  <RI>
0

>  <Rbt.Current_Directory>
/home/fstefaniak/projects/zuza/docking/adenine/4TZX

>  <Rbt.Executable>
rbdock ($Id: //depot/dev/client3/rdock/2013.1/src/exe/rbdock.cxx#4 $)

>  <Rbt.Library>
libRbt.so (2013.1, Build901 2013/11/27)

>  <Rbt.Parameter_File>
/home/fstefaniak/progs/rDock//data/scripts/dock_solv.prm

>  <Rbt.Receptor>
4tzx.prm

>  <SCORE>
-46.7001

>  <SCORE.INTER>
-26.4022

>  <SCORE.INTER.CONST>
1

>  <SCORE.INTER.POLAR>
-2.82973

>  <SCORE.INTER.ROT>
2

>  <SCORE.INTER.SOLV>
8.44788

>  <SCORE.INTER.VDW>
-15.9183

>  <SCORE.INTER.norm>
-2.64022

>  <SCORE.INTRA>
0.0311215

>  <SCORE.INTRA.DIHEDRAL>
0.100722

>  <SCORE.INTRA.DIHEDRAL.0>
3.67346

>  <SCORE.INTRA.POLAR>
0.047351

>  <SCORE.INTRA.POLAR.0>
-0.047351

>  <SCORE.INTRA.REPUL>
0

>  <SCORE.INTRA.REPUL.0>
0

>  <SCORE.INTRA.SOLV>
-0.00847921

>  <SCORE.INTRA.SOLV.lig_0>
-11.6873

>  <SCORE.INTRA.VDW>
-0.175993

>  <SCORE.INTRA.VDW.0>
0.492532

>  <SCORE.INTRA.norm>
0.00311215

>  <SCORE.RESTR>
0

>  <SCORE.RESTR.CAVITY>
0

>  <SCORE.RESTR.norm>
0

>  <SCORE.SYSTEM>
-20.329

>  <SCORE.SYSTEM.CONST>
0

>  <SCORE.SYSTEM.DIHEDRAL>
5.60047

>  <SCORE.SYSTEM.POLAR>
-3.0362

>  <SCORE.SYSTEM.SOLV>
0.128172

>  <SCORE.SYSTEM.VDW>
-5.34152

>  <SCORE.SYSTEM.norm>
-2.0329

>  <SCORE.heavy>
10

>  <SCORE.norm>
-4.67001

$$$$
P94526490
 OpenBabel12072022113D
libRbt.so/2013.1/901 2013/11/27
 11 12  0  0  0  0  0  0  0  0999 V2000
  -26.9493   13.2367  -16.9130 C   0  0  0  0  0  0  0  0  0  0  0  0
  -28.1636   14.1465  -16.7255 C   0  0  0  0  0  0  0  0  0  0  0  0
  -27.6527   15.3216  -16.0061 N   0  0  0  0  0  0  0  0  0  0  0  0
  -26.2939   15.5206  -16.5398 C   0  0  0  0  0  0  0  0  0  0  0  0
  -25.7548   14.0925  -16.5080 C   0  0  1  0  0  0  0  0  0  0  0  0
  -25.3659   13.7528  -15.1743 O   0  0  0  0  0  0  0  0  0  0  0  0
  -28.5255   16.4853  -16.1853 C   0  0  0  0  0  0  0  0  0  0  0  0
  -29.8675   16.2316  -15.5720 C   0  0  2  0  0  0  0  0  0  0  0  0
  -30.8639   17.3451  -15.3873 C   0  0  0  0  0  0  0  0  0  0  0  0
  -30.0714   16.8543  -14.2953 O   0  0  0  0  0  0  0  0  0  0  0  0
  -24.5127   14.2082  -15.0326 H   0  0  0  0  0  0  0  0  0  0  0  0
  1  2  1  0  0  0  0
  1  5  1  0  0  0  0
  2  3  1  0  0  0  0
  3  4  1  0  0  0  0
  3  7  1  0  0  0  0
  4  5  1  0  0  0  0
  5  6  1  1  0  0  0
  6 11  1  0  0  0  0
  8  9  1  0  0  0  0
  8 10  1  0  0  0  0
  8  7  1  6  0  0  0
  9 10  1  0  0  0  0
M  END
>  <CHROM.0>
-59.65120337,-172.02705067,-71.49248149,-43.30716763,-177.14334364,-61.20532610
-170.24336759,57.77061296,-168.20881242

>  <CHROM.1>
64.49666921,170.13978389,168.50935507,-27.92223717,15.29309363,-15.88982672
0.56193497,0.33046623,-2.32849925

>  <Name>
P94526490

>  <RI>
0

>  <Rbt.Current_Directory>
/home/fstefaniak/projects/zuza/docking/adenine/4TZX

>  <Rbt.Executable>
rbdock ($Id: //depot/dev/client3/rdock/2013.1/src/exe/rbdock.cxx#4 $)

>  <Rbt.Library>
libRbt.so (2013.1, Build901 2013/11/27)

>  <Rbt.Parameter_File>
/home/fstefaniak/progs/rDock//data/scripts/dock_solv.prm

>  <Rbt.Receptor>
4tzx.prm

>  <SCORE>
-45.9561

>  <SCORE.INTER>
-26.4691

>  <SCORE.INTER.CONST>
1

>  <SCORE.INTER.POLAR>
-2.84895

>  <SCORE.INTER.ROT>
2

>  <SCORE.INTER.SOLV>
8.44363

>  <SCORE.INTER.VDW>
-15.8974

>  <SCORE.INTER.norm>
-2.64691

>  <SCORE.INTRA>
0.108936

>  <SCORE.INTRA.DIHEDRAL>
0.303965

>  <SCORE.INTRA.DIHEDRAL.0>
3.67346

>  <SCORE.INTRA.POLAR>
0.047351

>  <SCORE.INTRA.POLAR.0>
-0.047351

>  <SCORE.INTRA.REPUL>
0

>  <SCORE.INTRA.REPUL.0>
0

>  <SCORE.INTRA.SOLV>
-0.0172297

>  <SCORE.INTRA.SOLV.lig_0>
-11.6873

>  <SCORE.INTRA.VDW>
-0.195425

>  <SCORE.INTRA.VDW.0>
0.492532

>  <SCORE.INTRA.norm>
0.0108936

>  <SCORE.RESTR>
0

>  <SCORE.RESTR.CAVITY>
0

>  <SCORE.RESTR.norm>
0

>  <SCORE.SYSTEM>
-19.5959

>  <SCORE.SYSTEM.CONST>
0

>  <SCORE.SYSTEM.DIHEDRAL>
5.36768

>  <SCORE.SYSTEM.POLAR>
-3.03133

>  <SCORE.SYSTEM.SOLV>
-0.230165

>  <SCORE.SYSTEM.VDW>
-4.67201

>  <SCORE.SYSTEM.norm>
-1.95959

>  <SCORE.heavy>
10

>  <SCORE.norm>
-4.59561

$$$$
P94938241
 OpenBabel12072022113D
libRbt.so/2013.1/901 2013/11/27
 15 15  0  0  0  0  0  0  0  0999 V2000
  -28.0940   14.5096  -15.9674 C   0  0  0  0  0  0  0  0  0  0  0  0
  -28.7049   15.9001  -15.8186 C   0  0  1  0  0  0  0  0  0  0  0  0
  -30.0167   15.9855  -16.6239 C   0  0  0  0  0  0  0  0  0  0  0  0
  -30.6940   17.2690  -16.4121 N   0  0  0  0  0  0  0  0  0  0  0  0
  -31.4049   17.3555  -15.1356 C   0  0  0  0  0  0  0  0  0  0  0  0
  -30.5216   17.9454  -14.0447 C   0  0  0  0  0  0  0  0  0  0  0  0
  -29.0653   17.4939  -14.0732 C   0  0  0  0  0  0  0  0  0  0  0  0
  -28.9070   16.1148  -14.4085 O   0  0  0  0  0  0  0  0  0  0  0  0
  -30.6124   18.3582  -17.2421 C   0  0  0  0  0  0  0  0  0  0  0  0
  -31.2956   19.4526  -17.0531 N   0  0  0  0  0  0  0  0  0  0  0  0
  -31.0055   20.4105  -18.0408 O   0  0  0  0  0  0  0  0  0  0  0  0
  -29.7533   18.2267  -18.2904 N   0  0  0  0  0  0  0  0  0  0  0  0
  -30.3736   20.9882  -17.5743 H   0  0  0  0  0  0  0  0  0  0  0  0
  -29.6813   19.0742  -18.8336 H   0  0  0  0  0  0  0  0  0  0  0  0
  -30.1158   17.4793  -18.8790 H   0  0  0  0  0  0  0  0  0  0  0  0
  2  1  1  1  0  0  0
  2  3  1  0  0  0  0
  2  8  1  0  0  0  0
  3  4  1  0  0  0  0
  4  5  1  0  0  0  0
  4  9  1  0  0  0  0
  5  6  1  0  0  0  0
  6  7  1  0  0  0  0
  7  8  1  0  0  0  0
  9 10  2  0  0  0  0
  9 12  1  0  0  0  0
 10 11  1  0  0  0  0
 11 13  1  0  0  0  0
 12 14  1  0  0  0  0
 12 15  1  0  0  0  0
M  END
>  <CHROM.0>
-61.35698783,176.93042387,-65.58411763,-42.95714172,-57.91181235,-62.87123036
-66.97324762,-58.53494154,-169.48578865

>  <CHROM.1>
-176.08406829,-99.72603046,-29.99518923,17.44913559,-16.12342551,-0.68701568
1.00841945,-1.39296557

>  <Name>
P94938241

>  <RI>
0

>  <Rbt.Current_Directory>
/home/fstefaniak/projects/zuza/docking/adenine/4TZX

>  <Rbt.Executable>
rbdock ($Id: //depot/dev/client3/rdock/2013.1/src/exe/rbdock.cxx#4 $)

>  <Rbt.Library>
libRbt.so (2013.1, Build901 2013/11/27)

>  <Rbt.Parameter_File>
/home/fstefaniak/progs/rDock//data/scripts/dock_solv.prm

>  <Rbt.Receptor>
4tzx.prm

>  <SCORE>
-42.1646

>  <SCORE.INTER>
-21.0874

>  <SCORE.INTER.CONST>
1

>  <SCORE.INTER.POLAR>
-3.16029

>  <SCORE.INTER.ROT>
1

>  <SCORE.INTER.SOLV>
13.7713

>  <SCORE.INTER.VDW>
-12.3811

>  <SCORE.INTER.norm>
-1.75729

>  <SCORE.INTRA>
-0.129377

>  <SCORE.INTRA.DIHEDRAL>
-1.9194

>  <SCORE.INTRA.DIHEDRAL.0>
2.45565

>  <SCORE.INTRA.POLAR>
0.213386

>  <SCORE.INTRA.POLAR.0>
-0.261431

>  <SCORE.INTRA.REPUL>
0

>  <SCORE.INTRA.REPUL.0>
0

>  <SCORE.INTRA.SOLV>
0.0117094

>  <SCORE.INTRA.SOLV.lig_0>
-10.6076

>  <SCORE.INTRA.VDW>
0.0989587

>  <SCORE.INTRA.VDW.0>
-0.381057

>  <SCORE.INTRA.norm>
-0.0107814

>  <SCORE.RESTR>
0

>  <SCORE.RESTR.CAVITY>
0

>  <SCORE.RESTR.norm>
0

>  <SCORE.SYSTEM>
-20.9478

>  <SCORE.SYSTEM.CONST>
0

>  <SCORE.SYSTEM.DIHEDRAL>
4.39782

>  <SCORE.SYSTEM.POLAR>
-3.0374

>  <SCORE.SYSTEM.SOLV>
0.162838

>  <SCORE.SYSTEM.VDW>
-5.36076

>  <SCORE.SYSTEM.norm>
-1.74565

>  <SCORE.heavy>
12

>  <SCORE.norm>
-3.51372

$$$$
P94938241
 OpenBabel12072022113D
libRbt.so/2013.1/901 2013/11/27
 15 15  0  0  0  0  0  0  0  0999 V2000
  -28.0769   14.5408  -15.9754 C   0  0  0  0  0  0  0  0  0  0  0  0
  -28.6971   15.9263  -15.8195 C   0  0  1  0  0  0  0  0  0  0  0  0
  -30.0096   16.0070  -16.6240 C   0  0  0  0  0  0  0  0  0  0  0  0
  -30.6955   17.2848  -16.4056 N   0  0  0  0  0  0  0  0  0  0  0  0
  -31.4066   17.3600  -15.1285 C   0  0  0  0  0  0  0  0  0  0  0  0
  -30.5271   17.9504  -14.0349 C   0  0  0  0  0  0  0  0  0  0  0  0
  -29.0678   17.5089  -14.0659 C   0  0  0  0  0  0  0  0  0  0  0  0
  -28.9002   16.1326  -14.4082 O   0  0  0  0  0  0  0  0  0  0  0  0
  -30.6215   18.3787  -17.2301 C   0  0  0  0  0  0  0  0  0  0  0  0
  -31.3120   19.4675  -17.0355 N   0  0  0  0  0  0  0  0  0  0  0  0
  -31.0287   20.4322  -18.0184 O   0  0  0  0  0  0  0  0  0  0  0  0
  -29.7619   18.2583  -18.2792 N   0  0  0  0  0  0  0  0  0  0  0  0
  -30.3604   20.9810  -17.5678 H   0  0  0  0  0  0  0  0  0  0  0  0
  -29.6860   19.1129  -18.8107 H   0  0  0  0  0  0  0  0  0  0  0  0
  -30.1265   17.5204  -18.8784 H   0  0  0  0  0  0  0  0  0  0  0  0
  2  1  1  1  0  0  0
  2  3  1  0  0  0  0
  2  8  1  0  0  0  0
  3  4  1  0  0  0  0
  4  5  1  0  0  0  0
  4  9  1  0  0  0  0
  5  6  1  0  0  0  0
  6  7  1  0  0  0  0
  7  8  1  0  0  0  0
  9 10  2  0  0  0  0
  9 12  1  0  0  0  0
 10 11  1  0  0  0  0
 11 13  1  0  0  0  0
 12 14  1  0  0  0  0
 12 15  1  0  0  0  0
M  END
>  <CHROM.0>
-55.33997270,177.31278524,-63.40318848,-42.46290008,-61.30907534,-56.37838063
-67.04736113,-59.51445831,-169.00796097

>  <CHROM.1>
-175.29961463,-96.48667113,-29.99763568,17.46807657,-16.11626717,-0.68519533
1.00161049,-1.38959528

>  <Name>
P94938241

>  <RI>
0

>  <Rbt.Current_Directory>
/home/fstefaniak/projects/zuza/docking/adenine/4TZX

>  <Rbt.Executable>
rbdock ($Id: //depot/dev/client3/rdock/2013.1/src/exe/rbdock.cxx#4 $)

>  <Rbt.Library>
libRbt.so (2013.1, Build901 2013/11/27)

>  <Rbt.Parameter_File>
/home/fstefaniak/progs/rDock//data/scripts/dock_solv.prm

>  <Rbt.Receptor>
4tzx.prm

>  <SCORE>
-42.012

>  <SCORE.INTER>
-21.0981

>  <SCORE.INTER.CONST>
1

>  <SCORE.INTER.POLAR>
-3.17894

>  <SCORE.INTER.ROT>
1

>  <SCORE.INTER.SOLV>
13.7629

>  <SCORE.INTER.VDW>
-12.3232

>  <SCORE.INTER.norm>
-1.75817

>  <SCORE.INTRA>
-0.116191

>  <SCORE.INTRA.DIHEDRAL>
-1.95112

>  <SCORE.INTRA.DIHEDRAL.0>
2.45565

>  <SCORE.INTRA.POLAR>
0.221653

>  <SCORE.INTRA.POLAR.0>
-0.261431

>  <SCORE.INTRA.REPUL>
0

>  <SCORE.INTRA.REPUL.0>
0

>  <SCORE.INTRA.SOLV>
0.0137082

>  <SCORE.INTRA.SOLV.lig_0>
-10.6076

>  <SCORE.INTRA.VDW>
0.0988982

>  <SCORE.INTRA.VDW.0>
-0.381057

>  <SCORE.INTRA.norm>
-0.0096826

>  <SCORE.RESTR>
0

>  <SCORE.RESTR.CAVITY>
0

>  <SCORE.RESTR.norm>
0

>  <SCORE.SYSTEM>
-20.7977

>  <SCORE.SYSTEM.CONST>
0

>  <SCORE.SYSTEM.DIHEDRAL>
4.51063

>  <SCORE.SYSTEM.POLAR>
-3.10706

>  <SCORE.SYSTEM.SOLV>
0.183334

>  <SCORE.SYSTEM.VDW>
-5.0729

>  <SCORE.SYSTEM.norm>
-1.73314

>  <SCORE.heavy>
12

>  <SCORE.norm>
-3.501

$$$$
P94938241
 OpenBabel12072022113D
libRbt.so/2013.1/901 2013/11/27
 15 15  0  0  0  0  0  0  0  0999 V2000
  -28.0685   14.5481  -15.9518 C   0  0  0  0  0  0  0  0  0  0  0  0
  -28.6953   15.9315  -15.8031 C   0  0  1  0  0  0  0  0  0  0  0  0
  -30.0066   16.0027  -16.6105 C   0  0  0  0  0  0  0  0  0  0  0  0
  -30.6987   17.2783  -16.3990 N   0  0  0  0  0  0  0  0  0  0  0  0
  -31.4127   17.3559  -15.1237 C   0  0  0  0  0  0  0  0  0  0  0  0
  -30.5380   17.9550  -14.0309 C   0  0  0  0  0  0  0  0  0  0  0  0
  -29.0767   17.5200  -14.0571 C   0  0  0  0  0  0  0  0  0  0  0  0
  -28.9022   16.1429  -14.3931 O   0  0  0  0  0  0  0  0  0  0  0  0
  -30.6280   18.3690  -17.2282 C   0  0  0  0  0  0  0  0  0  0  0  0
  -31.3239   19.4555  -17.0396 N   0  0  0  0  0  0  0  0  0  0  0  0
  -31.0429   20.4172  -18.0261 O   0  0  0  0  0  0  0  0  0  0  0  0
  -29.7658   18.2480  -18.2750 N   0  0  0  0  0  0  0  0  0  0  0  0
  -30.3989   20.9872  -17.5666 H   0  0  0  0  0  0  0  0  0  0  0  0
  -29.6886   19.1022  -18.8068 H   0  0  0  0  0  0  0  0  0  0  0  0
  -30.1289   17.5097  -18.8746 H   0  0  0  0  0  0  0  0  0  0  0  0
  2  1  1  1  0  0  0
  2  3  1  0  0  0  0
  2  8  1  0  0  0  0
  3  4  1  0  0  0  0
  4  5  1  0  0  0  0
  4  9  1  0  0  0  0
  5  6  1  0  0  0  0
  6  7  1  0  0  0  0
  7  8  1  0  0  0  0
  9 10  2  0  0  0  0
  9 12  1  0  0  0  0
 10 11  1  0  0  0  0
 11 13  1  0  0  0  0
 12 14  1  0  0  0  0
 12 15  1  0  0  0  0
M  END
>  <CHROM.0>
-59.15696121,177.42488851,-70.02431142,-43.39006980,179.75599650,-59.90636588
-170.04868327,-58.51924397,-169.03558617

>  <CHROM.1>
-174.96161844,-98.18049531,-30.00237047,17.46616112,-16.10904866,-0.68696093
0.99688681,-1.39235730

>  <Name>
P94938241

>  <RI>
0

>  <Rbt.Current_Directory>
/home/fstefaniak/projects/zuza/docking/adenine/4TZX

>  <Rbt.Executable>
rbdock ($Id: //depot/dev/client3/rdock/2013.1/src/exe/rbdock.cxx#4 $)

>  <Rbt.Library>
libRbt.so (2013.1, Build901 2013/11/27)

>  <Rbt.Parameter_File>
/home/fstefaniak/progs/rDock//data/scripts/dock_solv.prm

>  <Rbt.Receptor>
4tzx.prm

>  <SCORE>
-41.628

>  <SCORE.INTER>
-21.072

>  <SCORE.INTER.CONST>
1

>  <SCORE.INTER.POLAR>
-3.13029

>  <SCORE.INTER.ROT>
1

>  <SCORE.INTER.SOLV>
13.7453

>  <SCORE.INTER.VDW>
-12.4621

>  <SCORE.INTER.norm>
-1.756

>  <SCORE.INTRA>
-0.129449

>  <SCORE.INTRA.DIHEDRAL>
-1.93623

>  <SCORE.INTRA.DIHEDRAL.0>
2.45565

>  <SCORE.INTRA.POLAR>
0.218513

>  <SCORE.INTRA.POLAR.0>
-0.261431

>  <SCORE.INTRA.REPUL>
0

>  <SCORE.INTRA.REPUL.0>
0

>  <SCORE.INTRA.SOLV>
0.0125835

>  <SCORE.INTRA.SOLV.lig_0>
-10.6076

>  <SCORE.INTRA.VDW>
0.0894287

>  <SCORE.INTRA.VDW.0>
-0.381057

>  <SCORE.INTRA.norm>
-0.0107874

>  <SCORE.RESTR>
0

>  <SCORE.RESTR.CAVITY>
0

>  <SCORE.RESTR.norm>
0

>  <SCORE.SYSTEM>
-20.4266

>  <SCORE.SYSTEM.CONST>
0

>  <SCORE.SYSTEM.DIHEDRAL>
4.83202

>  <SCORE.SYSTEM.POLAR>
-3.03848

>  <SCORE.SYSTEM.SOLV>
-0.0390841

>  <SCORE.SYSTEM.VDW>
-5.08708

>  <SCORE.SYSTEM.norm>
-1.70221

>  <SCORE.heavy>
12

>  <SCORE.norm>
-3.469

$$$$
P96217416
 OpenBabel12072022113D
libRbt.so/2013.1/901 2013/11/27
 13 13  0  0  0  0  0  0  0  0999 V2000
  -26.0673   15.3060  -16.5578 C   0  0  0  0  0  0  0  0  0  0  0  0
  -26.2249   13.7943  -16.6456 C   0  0  0  0  0  0  0  0  0  0  0  0
  -27.9799   13.6039  -17.0165 S   0  0  0  0  0  0  0  0  0  0  0  0
  -28.2846   15.1202  -16.2350 C   0  0  0  0  0  0  0  0  0  0  0  0
  -27.2979   15.9104  -15.9991 N   0  0  0  0  0  0  0  0  0  0  0  0
  -29.5922   15.3356  -15.9251 N   0  0  0  0  0  0  0  0  0  0  0  0
  -30.1935   16.4468  -15.3823 C   0  0  0  0  0  0  0  0  0  0  0  0
  -31.4142   16.5855  -15.5103 O   0  0  0  0  0  0  0  0  0  0  0  0
  -29.3176   17.4971  -14.6880 C   0  0  0  0  0  0  0  0  0  0  0  0
  -29.6904   17.6041  -13.2666 N   0  0  0  0  0  0  0  0  0  0  0  0
  -30.2458   14.6606  -16.2948 H   0  0  0  0  0  0  0  0  0  0  0  0
  -29.6630   18.5935  -13.0065 H   0  0  0  0  0  0  0  0  0  0  0  0
  -28.9903   17.1301  -12.7006 H   0  0  0  0  0  0  0  0  0  0  0  0
  1  2  1  0  0  0  0
  1  5  1  0  0  0  0
  2  3  1  0  0  0  0
  3  4  1  0  0  0  0
  4  5  2  0  0  0  0
  4  6  1  0  0  0  0
  6  7  1  0  0  0  0
  6 11  1  0  0  0  0
  7  8  2  0  0  0  0
  7  9  1  0  0  0  0
  9 10  1  0  0  0  0
 10 12  1  0  0  0  0
 10 13  1  0  0  0  0
M  END
>  <CHROM.0>
-58.07438306,-59.80062684,-65.15655540,-43.50916699,-60.07956636,-65.63488472
-67.38637377,-174.10928332,-169.17844936

>  <CHROM.1>
-175.68454697,-117.89946644,-140.21195428,-28.57347742,15.50997339,-15.83192786
-0.86867745,-0.02361408,0.66477299

>  <Name>
P96217416

>  <RI>
0

>  <Rbt.Current_Directory>
/home/fstefaniak/projects/zuza/docking/adenine/4TZX

>  <Rbt.Executable>
rbdock ($Id: //depot/dev/client3/rdock/2013.1/src/exe/rbdock.cxx#4 $)

>  <Rbt.Library>
libRbt.so (2013.1, Build901 2013/11/27)

>  <Rbt.Parameter_File>
/home/fstefaniak/progs/rDock//data/scripts/dock_solv.prm

>  <Rbt.Receptor>
4tzx.prm

>  <SCORE>
-47.6173

>  <SCORE.INTER>
-26.8813

>  <SCORE.INTER.CONST>
1

>  <SCORE.INTER.POLAR>
-3.33072

>  <SCORE.INTER.ROT>
3

>  <SCORE.INTER.SOLV>
13.1226

>  <SCORE.INTER.VDW>
-16.7927

>  <SCORE.INTER.norm>
-2.68813

>  <SCORE.INTRA>
0.381646

>  <SCORE.INTRA.DIHEDRAL>
1.24605

>  <SCORE.INTRA.DIHEDRAL.0>
2.6552

>  <SCORE.INTRA.POLAR>
0

>  <SCORE.INTRA.POLAR.0>
0

>  <SCORE.INTRA.REPUL>
0

>  <SCORE.INTRA.REPUL.0>
0

>  <SCORE.INTRA.SOLV>
0.00304103

>  <SCORE.INTRA.SOLV.lig_0>
-17.754

>  <SCORE.INTRA.VDW>
-0.242899

>  <SCORE.INTRA.VDW.0>
-0.358972

>  <SCORE.INTRA.norm>
0.0381646

>  <SCORE.RESTR>
0

>  <SCORE.RESTR.CAVITY>
0

>  <SCORE.RESTR.norm>
0

>  <SCORE.SYSTEM>
-21.1176

>  <SCORE.SYSTEM.CONST>
0

>  <SCORE.SYSTEM.DIHEDRAL>
4.5499

>  <SCORE.SYSTEM.POLAR>
-3.0507

>  <SCORE.SYSTEM.SOLV>
0.0460574

>  <SCORE.SYSTEM.VDW>
-5.44137

>  <SCORE.SYSTEM.norm>
-2.11176

>  <SCORE.heavy>
10

>  <SCORE.norm>
-4.76173

$$$$
P96217416
 OpenBabel12072022113D
libRbt.so/2013.1/901 2013/11/27
 13 13  0  0  0  0  0  0  0  0999 V2000
  -26.0885   15.3199  -16.4596 C   0  0  0  0  0  0  0  0  0  0  0  0
  -26.2734   13.8191  -16.6360 C   0  0  0  0  0  0  0  0  0  0  0  0
  -28.0244   13.6855  -17.0483 S   0  0  0  0  0  0  0  0  0  0  0  0
  -28.3146   15.1611  -16.1874 C   0  0  0  0  0  0  0  0  0  0  0  0
  -27.3177   15.9165  -15.8893 N   0  0  0  0  0  0  0  0  0  0  0  0
  -29.6235   15.3850  -15.8890 N   0  0  0  0  0  0  0  0  0  0  0  0
  -30.2208   16.4964  -15.3422 C   0  0  0  0  0  0  0  0  0  0  0  0
  -31.4389   16.6469  -15.4816 O   0  0  0  0  0  0  0  0  0  0  0  0
  -29.3432   17.5325  -14.6292 C   0  0  0  0  0  0  0  0  0  0  0  0
  -29.7333   17.6334  -13.2119 N   0  0  0  0  0  0  0  0  0  0  0  0
  -30.2790   14.7191  -16.2717 H   0  0  0  0  0  0  0  0  0  0  0  0
  -29.7103   18.6217  -12.9476 H   0  0  0  0  0  0  0  0  0  0  0  0
  -29.0394   17.1580  -12.6394 H   0  0  0  0  0  0  0  0  0  0  0  0
  1  2  1  0  0  0  0
  1  5  1  0  0  0  0
  2  3  1  0  0  0  0
  3  4  1  0  0  0  0
  4  5  2  0  0  0  0
  4  6  1  0  0  0  0
  6  7  1  0  0  0  0
  6 11  1  0  0  0  0
  7  8  2  0  0  0  0
  7  9  1  0  0  0  0
  9 10  1  0  0  0  0
 10 12  1  0  0  0  0
 10 13  1  0  0  0  0
M  END
>  <CHROM.0>
-56.97208219,-176.70110744,-71.00375238,-43.63625525,-52.15479986,-62.76274474
-169.80804246,-61.59269860,-168.73354340

>  <CHROM.1>
-172.85478972,-118.10992756,-139.51679178,-28.60673353,15.55411303,-15.79556775
-0.87246234,-0.04662231,0.69136544

>  <Name>
P96217416

>  <RI>
0

>  <Rbt.Current_Directory>
/home/fstefaniak/projects/zuza/docking/adenine/4TZX

>  <Rbt.Executable>
rbdock ($Id: //depot/dev/client3/rdock/2013.1/src/exe/rbdock.cxx#4 $)

>  <Rbt.Library>
libRbt.so (2013.1, Build901 2013/11/27)

>  <Rbt.Parameter_File>
/home/fstefaniak/progs/rDock//data/scripts/dock_solv.prm

>  <Rbt.Receptor>
4tzx.prm

>  <SCORE>
-47.0455

>  <SCORE.INTER>
-27.082

>  <SCORE.INTER.CONST>
1

>  <SCORE.INTER.POLAR>
-3.34281

>  <SCORE.INTER.ROT>
3

>  <SCORE.INTER.SOLV>
13.1519

>  <SCORE.INTER.VDW>
-16.8959

>  <SCORE.INTER.norm>
-2.7082

>  <SCORE.INTRA>
0.395473

>  <SCORE.INTRA.DIHEDRAL>
1.25301

>  <SCORE.INTRA.DIHEDRAL.0>
2.6552

>  <SCORE.INTRA.POLAR>
0

>  <SCORE.INTRA.POLAR.0>
0

>  <SCORE.INTRA.REPUL>
0

>  <SCORE.INTRA.REPUL.0>
0

>  <SCORE.INTRA.SOLV>
0.00304912

>  <SCORE.INTRA.SOLV.lig_0>
-17.754

>  <SCORE.INTRA.VDW>
-0.232557

>  <SCORE.INTRA.VDW.0>
-0.358972

>  <SCORE.INTRA.norm>
0.0395473

>  <SCORE.RESTR>
0

>  <SCORE.RESTR.CAVITY>
0

>  <SCORE.RESTR.norm>
0

>  <SCORE.SYSTEM>
-20.359

>  <SCORE.SYSTEM.CONST>
0

>  <SCORE.SYSTEM.DIHEDRAL>
5.30737

>  <SCORE.SYSTEM.POLAR>
-3.06539

>  <SCORE.SYSTEM.SOLV>
0.136381

>  <SCORE.SYSTEM.VDW>
-5.16925

>  <SCORE.SYSTEM.norm>
-2.0359

>  <SCORE.heavy>
10

>  <SCORE.norm>
-4.70455

$$$$
P96217416
 OpenBabel12072022113D
libRbt.so/2013.1/901 2013/11/27
 13 13  0  0  0  0  0  0  0  0999 V2000
  -26.1060   15.3487  -16.4652 C   0  0  0  0  0  0  0  0  0  0  0  0
  -26.2524   13.8391  -16.5965 C   0  0  0  0  0  0  0  0  0  0  0  0
  -28.0017   13.6479  -16.9932 S   0  0  0  0  0  0  0  0  0  0  0  0
  -28.3255   15.1400  -16.1738 C   0  0  0  0  0  0  0  0  0  0  0  0
  -27.3470   15.9296  -15.9046 N   0  0  0  0  0  0  0  0  0  0  0  0
  -29.6381   15.3384  -15.8735 N   0  0  0  0  0  0  0  0  0  0  0  0
  -30.2606   16.4483  -15.3523 C   0  0  0  0  0  0  0  0  0  0  0  0
  -31.4829   16.5641  -15.4882 O   0  0  0  0  0  0  0  0  0  0  0  0
  -29.4059   17.5247  -14.6719 C   0  0  0  0  0  0  0  0  0  0  0  0
  -29.7396   17.6017  -13.2388 N   0  0  0  0  0  0  0  0  0  0  0  0
  -30.2784   14.6463  -16.2347 H   0  0  0  0  0  0  0  0  0  0  0  0
  -29.6827   18.5828  -12.9536 H   0  0  0  0  0  0  0  0  0  0  0  0
  -29.0364   17.0970  -12.7041 H   0  0  0  0  0  0  0  0  0  0  0  0
  1  2  1  0  0  0  0
  1  5  1  0  0  0  0
  2  3  1  0  0  0  0
  3  4  1  0  0  0  0
  4  5  2  0  0  0  0
  4  6  1  0  0  0  0
  6  7  1  0  0  0  0
  6 11  1  0  0  0  0
  7  8  2  0  0  0  0
  7  9  1  0  0  0  0
  9 10  1  0  0  0  0
 10 12  1  0  0  0  0
 10 13  1  0  0  0  0
M  END
>  <CHROM.0>
-57.17338744,-62.34782891,-72.18031531,-42.91331107,-55.67565487,-58.06641811
-168.67955045,-56.27424352,-169.74364084

>  <CHROM.1>
-173.03808476,-115.03850370,-143.88152994,-28.61983529,15.52979190,-15.78824667
-0.85530235,-0.02967958,0.67121995

>  <Name>
P96217416

>  <RI>
0

>  <Rbt.Current_Directory>
/home/fstefaniak/projects/zuza/docking/adenine/4TZX

>  <Rbt.Executable>
rbdock ($Id: //depot/dev/client3/rdock/2013.1/src/exe/rbdock.cxx#4 $)

>  <Rbt.Library>
libRbt.so (2013.1, Build901 2013/11/27)

>  <Rbt.Parameter_File>
/home/fstefaniak/progs/rDock//data/scripts/dock_solv.prm

>  <Rbt.Receptor>
4tzx.prm

>  <SCORE>
-47.0175

>  <SCORE.INTER>
-26.9124

>  <SCORE.INTER.CONST>
1

>  <SCORE.INTER.POLAR>
-3.38661

>  <SCORE.INTER.ROT>
3

>  <SCORE.INTER.SOLV>
13.2089

>  <SCORE.INTER.VDW>
-16.6558

>  <SCORE.INTER.norm>
-2.69124

>  <SCORE.INTRA>
0.283316

>  <SCORE.INTRA.DIHEDRAL>
1.02298

>  <SCORE.INTRA.DIHEDRAL.0>
2.6552

>  <SCORE.INTRA.POLAR>
0

>  <SCORE.INTRA.POLAR.0>
0

>  <SCORE.INTRA.REPUL>
0

>  <SCORE.INTRA.REPUL.0>
0

>  <SCORE.INTRA.SOLV>
0.0322692

>  <SCORE.INTRA.SOLV.lig_0>
-17.754

>  <SCORE.INTRA.VDW>
-0.244311

>  <SCORE.INTRA.VDW.0>
-0.358972

>  <SCORE.INTRA.norm>
0.0283316

>  <SCORE.RESTR>
0

>  <SCORE.RESTR.CAVITY>
0

>  <SCORE.RESTR.norm>
0

>  <SCORE.SYSTEM>
-20.3884

>  <SCORE.SYSTEM.CONST>
0

>  <SCORE.SYSTEM.DIHEDRAL>
5.3495

>  <SCORE.SYSTEM.POLAR>
-3.05202

>  <SCORE.SYSTEM.SOLV>
0.177979

>  <SCORE.SYSTEM.VDW>
-5.26135

>  <SCORE.SYSTEM.norm>
-2.03884

>  <SCORE.heavy>
10

>  <SCORE.norm>
-4.70175

$$$$
P96377371
 OpenBabel12072022113D
libRbt.so/2013.1/901 2013/11/27
 11 11  0  0  0  0  0  0  0  0999 V2000
  -29.6701   16.9323  -16.2961 C   0  0  0  0  0  0  0  0  0  0  0  0
  -30.6396   16.9192  -15.0955 C   0  0  0  0  0  0  0  0  0  0  0  0
  -31.5875   17.7907  -15.9474 C   0  0  0  0  0  0  0  0  0  0  0  0
  -30.4245   18.0851  -16.7675 N   0  0  0  0  0  0  0  0  0  0  0  0
  -30.3142   18.7003  -17.9733 C   0  0  0  0  0  0  0  0  0  0  0  0
  -29.8251   18.1836  -18.9698 O   0  0  0  0  0  0  0  0  0  0  0  0
  -30.7985   19.9674  -18.0124 N   0  0  0  0  0  0  0  0  0  0  0  0
  -30.1552   17.5122  -13.8660 O   0  0  0  0  0  0  0  0  0  0  0  0
  -31.7995   20.0824  -17.9654 H   0  0  0  0  0  0  0  0  0  0  0  0
  -30.2571   20.6244  -17.4651 H   0  0  0  0  0  0  0  0  0  0  0  0
  -30.0105   18.4503  -14.0862 H   0  0  0  0  0  0  0  0  0  0  0  0
  1  2  1  0  0  0  0
  1  4  1  0  0  0  0
  2  3  1  0  0  0  0
  2  8  1  0  0  0  0
  3  4  1  0  0  0  0
  4  5  1  0  0  0  0
  5  6  2  0  0  0  0
  5  7  1  0  0  0  0
  7  9  1  0  0  0  0
  7 10  1  0  0  0  0
  8 11  1  0  0  0  0
M  END
>  <CHROM.0>
-58.09150780,-173.31766703,-61.52578567,-42.43032998,-54.99079948,-60.00642479
-65.95040106,-55.21925176,-169.12039817

>  <CHROM.1>
63.24211194,20.10535572,-70.97337474,-30.41887678,18.04743886,-16.59575115
-1.60677495,1.00260900,-1.12208641

>  <Name>
P96377371

>  <RI>
0

>  <Rbt.Current_Directory>
/home/fstefaniak/projects/zuza/docking/adenine/4TZX

>  <Rbt.Executable>
rbdock ($Id: //depot/dev/client3/rdock/2013.1/src/exe/rbdock.cxx#4 $)

>  <Rbt.Library>
libRbt.so (2013.1, Build901 2013/11/27)

>  <Rbt.Parameter_File>
/home/fstefaniak/progs/rDock//data/scripts/dock_solv.prm

>  <Rbt.Receptor>
4tzx.prm

>  <SCORE>
-52.3708

>  <SCORE.INTER>
-30.9072

>  <SCORE.INTER.CONST>
1

>  <SCORE.INTER.POLAR>
-4.7627

>  <SCORE.INTER.ROT>
2

>  <SCORE.INTER.SOLV>
13.5812

>  <SCORE.INTER.VDW>
-14.1895

>  <SCORE.INTER.norm>
-3.8634

>  <SCORE.INTRA>
-0.65111

>  <SCORE.INTRA.DIHEDRAL>
-0.677726

>  <SCORE.INTRA.DIHEDRAL.0>
2.79528

>  <SCORE.INTRA.POLAR>
0

>  <SCORE.INTRA.POLAR.0>
0

>  <SCORE.INTRA.REPUL>
0

>  <SCORE.INTRA.REPUL.0>
0

>  <SCORE.INTRA.SOLV>
-0.00856616

>  <SCORE.INTRA.SOLV.lig_0>
-18.4608

>  <SCORE.INTRA.VDW>
-0.307964

>  <SCORE.INTRA.VDW.0>
0.250528

>  <SCORE.INTRA.norm>
-0.0813888

>  <SCORE.RESTR>
0

>  <SCORE.RESTR.CAVITY>
0

>  <SCORE.RESTR.norm>
0

>  <SCORE.SYSTEM>
-20.8125

>  <SCORE.SYSTEM.CONST>
0

>  <SCORE.SYSTEM.DIHEDRAL>
4.64298

>  <SCORE.SYSTEM.POLAR>
-3.09072

>  <SCORE.SYSTEM.SOLV>
0.180592

>  <SCORE.SYSTEM.VDW>
-5.18042

>  <SCORE.SYSTEM.norm>
-2.60156

>  <SCORE.heavy>
8

>  <SCORE.norm>
-6.54634

$$$$
P96377371
 OpenBabel12072022113D
libRbt.so/2013.1/901 2013/11/27
 11 11  0  0  0  0  0  0  0  0999 V2000
  -31.2513   18.1478  -16.2227 C   0  0  0  0  0  0  0  0  0  0  0  0
  -31.1327   18.6866  -17.6640 C   0  0  0  0  0  0  0  0  0  0  0  0
  -30.0473   17.6134  -17.8958 C   0  0  0  0  0  0  0  0  0  0  0  0
  -29.9487   17.5374  -16.4480 N   0  0  0  0  0  0  0  0  0  0  0  0
  -29.3066   16.6532  -15.6415 C   0  0  0  0  0  0  0  0  0  0  0  0
  -28.1744   16.8140  -15.2039 O   0  0  0  0  0  0  0  0  0  0  0  0
  -30.0203   15.5404  -15.3345 N   0  0  0  0  0  0  0  0  0  0  0  0
  -30.7121   20.0652  -17.8070 O   0  0  0  0  0  0  0  0  0  0  0  0
  -30.8748   15.3824  -15.8465 H   0  0  0  0  0  0  0  0  0  0  0  0
  -29.4461   14.7216  -15.1793 H   0  0  0  0  0  0  0  0  0  0  0  0
  -31.3607   20.5748  -17.2882 H   0  0  0  0  0  0  0  0  0  0  0  0
  1  2  1  0  0  0  0
  1  4  1  0  0  0  0
  2  3  1  0  0  0  0
  2  8  1  0  0  0  0
  3  4  1  0  0  0  0
  4  5  1  0  0  0  0
  5  6  2  0  0  0  0
  5  7  1  0  0  0  0
  7  9  1  0  0  0  0
  7 10  1  0  0  0  0
  8 11  1  0  0  0  0
M  END
>  <CHROM.0>
-59.82898041,-62.06164111,-61.81806915,-41.74040147,-175.08143575,-173.85906846
-64.44477329,-59.04376973,-168.32573109

>  <CHROM.1>
-56.45976005,-124.87001288,10.61598694,-30.06957195,17.64866126,-16.52115067
2.00551399,-0.27581392,-0.51198166

>  <Name>
P96377371

>  <RI>
0

>  <Rbt.Current_Directory>
/home/fstefaniak/projects/zuza/docking/adenine/4TZX

>  <Rbt.Executable>
rbdock ($Id: //depot/dev/client3/rdock/2013.1/src/exe/rbdock.cxx#4 $)

>  <Rbt.Library>
libRbt.so (2013.1, Build901 2013/11/27)

>  <Rbt.Parameter_File>
/home/fstefaniak/progs/rDock//data/scripts/dock_solv.prm

>  <Rbt.Receptor>
4tzx.prm

>  <SCORE>
-51.6853

>  <SCORE.INTER>
-29.6551

>  <SCORE.INTER.CONST>
1

>  <SCORE.INTER.POLAR>
-4.06654

>  <SCORE.INTER.ROT>
2

>  <SCORE.INTER.SOLV>
12.9632

>  <SCORE.INTER.VDW>
-15.4693

>  <SCORE.INTER.norm>
-3.70689

>  <SCORE.INTRA>
-1.07644

>  <SCORE.INTRA.DIHEDRAL>
-0.671546

>  <SCORE.INTRA.DIHEDRAL.0>
2.79528

>  <SCORE.INTRA.POLAR>
0

>  <SCORE.INTRA.POLAR.0>
0

>  <SCORE.INTRA.REPUL>
0

>  <SCORE.INTRA.REPUL.0>
0

>  <SCORE.INTRA.SOLV>
0.00896192

>  <SCORE.INTRA.SOLV.lig_0>
-18.4608

>  <SCORE.INTRA.VDW>
-0.745146

>  <SCORE.INTRA.VDW.0>
0.250528

>  <SCORE.INTRA.norm>
-0.134555

>  <SCORE.RESTR>
0

>  <SCORE.RESTR.CAVITY>
0

>  <SCORE.RESTR.norm>
0

>  <SCORE.SYSTEM>
-20.9538

>  <SCORE.SYSTEM.CONST>
0

>  <SCORE.SYSTEM.DIHEDRAL>
4.61371

>  <SCORE.SYSTEM.POLAR>
-3.07256

>  <SCORE.SYSTEM.SOLV>
-0.101303

>  <SCORE.SYSTEM.VDW>
-5.23145

>  <SCORE.SYSTEM.norm>
-2.61922

>  <SCORE.heavy>
8

>  <SCORE.norm>
-6.46066

$$$$
P96377371
 OpenBabel12072022113D
libRbt.so/2013.1/901 2013/11/27
 11 11  0  0  0  0  0  0  0  0999 V2000
  -31.4957   17.9695  -15.9191 C   0  0  0  0  0  0  0  0  0  0  0  0
  -30.5678   17.1635  -14.9858 C   0  0  0  0  0  0  0  0  0  0  0  0
  -29.3986   17.6002  -15.8946 C   0  0  0  0  0  0  0  0  0  0  0  0
  -30.4123   17.9060  -16.8899 N   0  0  0  0  0  0  0  0  0  0  0  0
  -30.3314   18.5675  -18.0733 C   0  0  0  0  0  0  0  0  0  0  0  0
  -29.9165   18.0730  -19.1137 O   0  0  0  0  0  0  0  0  0  0  0  0
  -30.7560   19.8559  -18.0355 N   0  0  0  0  0  0  0  0  0  0  0  0
  -30.8154   15.7391  -14.8996 O   0  0  0  0  0  0  0  0  0  0  0  0
  -31.7516   20.0162  -18.0525 H   0  0  0  0  0  0  0  0  0  0  0  0
  -30.2309   20.4361  -17.3937 H   0  0  0  0  0  0  0  0  0  0  0  0
  -30.9522   15.4573  -15.8223 H   0  0  0  0  0  0  0  0  0  0  0  0
  1  2  1  0  0  0  0
  1  4  1  0  0  0  0
  2  3  1  0  0  0  0
  2  8  1  0  0  0  0
  3  4  1  0  0  0  0
  4  5  1  0  0  0  0
  5  6  2  0  0  0  0
  5  7  1  0  0  0  0
  7  9  1  0  0  0  0
  7 10  1  0  0  0  0
  8 11  1  0  0  0  0
M  END
>  <CHROM.0>
-62.31281728,-163.03720841,-68.93503760,-43.74848043,-62.67615600,-58.55419844
-66.00349558,-177.97935290,-169.07966475

>  <CHROM.1>
44.38812221,-138.86336725,-78.60676249,-30.47319639,17.84057754,-16.73688635
1.71495577,-1.01817459,2.31771716

>  <Name>
P96377371

>  <RI>
0

>  <Rbt.Current_Directory>
/home/fstefaniak/projects/zuza/docking/adenine/4TZX

>  <Rbt.Executable>
rbdock ($Id: //depot/dev/client3/rdock/2013.1/src/exe/rbdock.cxx#4 $)

>  <Rbt.Library>
libRbt.so (2013.1, Build901 2013/11/27)

>  <Rbt.Parameter_File>
/home/fstefaniak/progs/rDock//data/scripts/dock_solv.prm

>  <Rbt.Receptor>
4tzx.prm

>  <SCORE>
-51.6264

>  <SCORE.INTER>
-30.7632

>  <SCORE.INTER.CONST>
1

>  <SCORE.INTER.POLAR>
-4.60921

>  <SCORE.INTER.ROT>
2

>  <SCORE.INTER.SOLV>
14.6818

>  <SCORE.INTER.VDW>
-14.9721

>  <SCORE.INTER.norm>
-3.8454

>  <SCORE.INTRA>
-0.360898

>  <SCORE.INTRA.DIHEDRAL>
0.068031

>  <SCORE.INTRA.DIHEDRAL.0>
2.79528

>  <SCORE.INTRA.POLAR>
0

>  <SCORE.INTRA.POLAR.0>
0

>  <SCORE.INTRA.REPUL>
0

>  <SCORE.INTRA.REPUL.0>
0

>  <SCORE.INTRA.SOLV>
0.064981

>  <SCORE.INTRA.SOLV.lig_0>
-18.4608

>  <SCORE.INTRA.VDW>
-0.427404

>  <SCORE.INTRA.VDW.0>
0.250528

>  <SCORE.INTRA.norm>
-0.0451122

>  <SCORE.RESTR>
0

>  <SCORE.RESTR.CAVITY>
0

>  <SCORE.RESTR.norm>
0

>  <SCORE.SYSTEM>
-20.5023

>  <SCORE.SYSTEM.CONST>
0

>  <SCORE.SYSTEM.DIHEDRAL>
5.7495

>  <SCORE.SYSTEM.POLAR>
-3.01825

>  <SCORE.SYSTEM.SOLV>
0.00362442

>  <SCORE.SYSTEM.VDW>
-5.52508

>  <SCORE.SYSTEM.norm>
-2.56279

>  <SCORE.heavy>
8

>  <SCORE.norm>
-6.4533

$$$$
adenine
 OpenBabel12072022113D
libRbt.so/2013.1/901 2013/11/27
 13 14  0  0  0  0  0  0  0  0999 V2000
  -30.4361   18.5624  -18.8290 C   0  0  0  0  0  0  0  0  0  0  0  0
  -30.9572   19.2337  -17.7558 N   0  0  0  0  0  0  0  0  0  0  0  0
  -31.3768   20.1510  -17.7563 H   0  0  0  0  0  0  0  0  0  0  0  0
  -30.8138   18.4329  -16.6607 C   0  0  0  0  0  0  0  0  0  0  0  0
  -30.1867   17.2913  -17.1280 C   0  0  0  0  0  0  0  0  0  0  0  0
  -29.9649   17.3806  -18.4890 N   0  0  0  0  0  0  0  0  0  0  0  0
  -29.9162   16.2924  -16.1780 C   0  0  0  0  0  0  0  0  0  0  0  0
  -30.3006   16.4998  -14.8969 N   0  0  0  0  0  0  0  0  0  0  0  0
  -30.9018   17.6713  -14.5884 C   0  0  0  0  0  0  0  0  0  0  0  0
  -31.2017   18.7020  -15.4062 N   0  0  0  0  0  0  0  0  0  0  0  0
  -29.2925   15.0909  -16.4912 N   0  0  0  0  0  0  0  0  0  0  0  0
  -29.0950   14.5190  -15.6776 H   0  0  0  0  0  0  0  0  0  0  0  0
  -28.5540   15.2141  -17.1708 H   0  0  0  0  0  0  0  0  0  0  0  0
  1  2  1  0  0  0  0
  1  6  2  0  0  0  0
  2  3  1  0  0  0  0
  2  4  1  0  0  0  0
  4  5  2  0  0  0  0
  4 10  1  0  0  0  0
  5  6  1  0  0  0  0
  5  7  1  0  0  0  0
  7  8  2  0  0  0  0
  7 11  1  0  0  0  0
  8  9  1  0  0  0  0
  9 10  2  0  0  0  0
 11 12  1  0  0  0  0
 11 13  1  0  0  0  0
M  END
>  <CHROM.0>
-59.61494706,-172.84459321,-66.25521881,-43.56656433,-177.24306876,-58.13950307
-66.80166646,-58.03210542,-169.50750460

>  <CHROM.1>
174.62293097,-30.38108479,17.49491131,-16.64580877,-1.96752372,-1.09125911
1.98968464

>  <Name>
adenine

>  <RI>
0

>  <Rbt.Current_Directory>
/home/fstefaniak/projects/zuza/docking/adenine/4TZX

>  <Rbt.Executable>
rbdock ($Id: //depot/dev/client3/rdock/2013.1/src/exe/rbdock.cxx#4 $)

>  <Rbt.Library>
libRbt.so (2013.1, Build901 2013/11/27)

>  <Rbt.Parameter_File>
/home/fstefaniak/progs/rDock//data/scripts/dock_solv.prm

>  <Rbt.Receptor>
4tzx.prm

>  <SCORE>
-65.4503

>  <SCORE.INTER>
-44.3169

>  <SCORE.INTER.CONST>
1

>  <SCORE.INTER.POLAR>
-5.45492

>  <SCORE.INTER.ROT>
1

>  <SCORE.INTER.SOLV>
13.2702

>  <SCORE.INTER.VDW>
-20.0516

>  <SCORE.INTER.norm>
-4.43169

>  <SCORE.INTRA>
-0.00237715

>  <SCORE.INTRA.DIHEDRAL>
0.0207224

>  <SCORE.INTRA.DIHEDRAL.0>
0.467566

>  <SCORE.INTRA.POLAR>
0

>  <SCORE.INTRA.POLAR.0>
0

>  <SCORE.INTRA.REPUL>
0

>  <SCORE.INTRA.REPUL.0>
0

>  <SCORE.INTRA.SOLV>
0.00746894

>  <SCORE.INTRA.SOLV.lig_0>
-16.6672

>  <SCORE.INTRA.VDW>
-0.0164728

>  <SCORE.INTRA.VDW.0>
-0.139743

>  <SCORE.INTRA.norm>
-0.000237715

>  <SCORE.RESTR>
0

>  <SCORE.RESTR.CAVITY>
0

>  <SCORE.RESTR.norm>
0

>  <SCORE.SYSTEM>
-21.131

>  <SCORE.SYSTEM.CONST>
0

>  <SCORE.SYSTEM.DIHEDRAL>
4.52708

>  <SCORE.SYSTEM.POLAR>
-3.03539

>  <SCORE.SYSTEM.SOLV>
-0.0232133

>  <SCORE.SYSTEM.VDW>
-5.47069

>  <SCORE.SYSTEM.norm>
-2.1131

>  <SCORE.heavy>
10

>  <SCORE.norm>
-6.54503

$$$$
adenine
 OpenBabel12072022113D
libRbt.so/2013.1/901 2013/11/27
 13 14  0  0  0  0  0  0  0  0999 V2000
  -30.4344   18.5409  -18.8245 C   0  0  0  0  0  0  0  0  0  0  0  0
  -31.0033   19.1707  -17.7505 N   0  0  0  0  0  0  0  0  0  0  0  0
  -31.4468   20.0767  -17.7404 H   0  0  0  0  0  0  0  0  0  0  0  0
  -30.8698   18.3461  -16.6720 C   0  0  0  0  0  0  0  0  0  0  0  0
  -30.1996   17.2334  -17.1493 C   0  0  0  0  0  0  0  0  0  0  0  0
  -29.9418   17.3633  -18.5006 N   0  0  0  0  0  0  0  0  0  0  0  0
  -29.9297   16.2178  -16.2171 C   0  0  0  0  0  0  0  0  0  0  0  0
  -30.3556   16.3823  -14.9429 N   0  0  0  0  0  0  0  0  0  0  0  0
  -30.9961   17.5295  -14.6228 C   0  0  0  0  0  0  0  0  0  0  0  0
  -31.3000   18.5728  -15.4230 N   0  0  0  0  0  0  0  0  0  0  0  0
  -29.2658   15.0412  -16.5419 N   0  0  0  0  0  0  0  0  0  0  0  0
  -29.0488   14.4684  -15.7338 H   0  0  0  0  0  0  0  0  0  0  0  0
  -28.5320   15.1960  -17.2201 H   0  0  0  0  0  0  0  0  0  0  0  0
  1  2  1  0  0  0  0
  1  6  2  0  0  0  0
  2  3  1  0  0  0  0
  2  4  1  0  0  0  0
  4  5  2  0  0  0  0
  4 10  1  0  0  0  0
  5  6  1  0  0  0  0
  5  7  1  0  0  0  0
  7  8  2  0  0  0  0
  7 11  1  0  0  0  0
  8  9  1  0  0  0  0
  9 10  2  0  0  0  0
 11 12  1  0  0  0  0
 11 13  1  0  0  0  0
M  END
>  <CHROM.0>
-60.62805796,-170.92045778,-64.48751113,-42.66066971,-57.49376616,-60.94971242
-67.53283972,-59.37793828,-169.12275868

>  <CHROM.1>
172.70033680,-30.41286329,17.41957045,-16.66815066,-1.93694299,-1.05526979
2.04159326

>  <Name>
adenine

>  <RI>
0

>  <Rbt.Current_Directory>
/home/fstefaniak/projects/zuza/docking/adenine/4TZX

>  <Rbt.Executable>
rbdock ($Id: //depot/dev/client3/rdock/2013.1/src/exe/rbdock.cxx#4 $)

>  <Rbt.Library>
libRbt.so (2013.1, Build901 2013/11/27)

>  <Rbt.Parameter_File>
/home/fstefaniak/progs/rDock//data/scripts/dock_solv.prm

>  <Rbt.Receptor>
4tzx.prm

>  <SCORE>
-65.4058

>  <SCORE.INTER>
-44.4467

>  <SCORE.INTER.CONST>
1

>  <SCORE.INTER.POLAR>
-5.51546

>  <SCORE.INTER.ROT>
1

>  <SCORE.INTER.SOLV>
13.2454

>  <SCORE.INTER.VDW>
-19.928

>  <SCORE.INTER.norm>
-4.44467

>  <SCORE.INTRA>
0.000732609

>  <SCORE.INTRA.DIHEDRAL>
0.0216132

>  <SCORE.INTRA.DIHEDRAL.0>
0.467566

>  <SCORE.INTRA.POLAR>
0

>  <SCORE.INTRA.POLAR.0>
0

>  <SCORE.INTRA.REPUL>
0

>  <SCORE.INTRA.REPUL.0>
0

>  <SCORE.INTRA.SOLV>
0.00652119

>  <SCORE.INTRA.SOLV.lig_0>
-16.6672

>  <SCORE.INTRA.VDW>
-0.0133346

>  <SCORE.INTRA.VDW.0>
-0.139743

>  <SCORE.INTRA.norm>
7.32609e-05

>  <SCORE.RESTR>
0

>  <SCORE.RESTR.CAVITY>
0

>  <SCORE.RESTR.norm>
0

>  <SCORE.SYSTEM>
-20.9598

>  <SCORE.SYSTEM.CONST>
0

>  <SCORE.SYSTEM.DIHEDRAL>
4.76608

>  <SCORE.SYSTEM.POLAR>
-3.05525

>  <SCORE.SYSTEM.SOLV>
0.155329

>  <SCORE.SYSTEM.VDW>
-5.42954

>  <SCORE.SYSTEM.norm>
-2.09598

>  <SCORE.heavy>
10

>  <SCORE.norm>
-6.54058

$$$$
adenine
 OpenBabel12072022113D
libRbt.so/2013.1/901 2013/11/27
 13 14  0  0  0  0  0  0  0  0999 V2000
  -30.3864   18.5919  -18.8065 C   0  0  0  0  0  0  0  0  0  0  0  0
  -30.9692   19.2176  -17.7374 N   0  0  0  0  0  0  0  0  0  0  0  0
  -31.4057   20.1269  -17.7277 H   0  0  0  0  0  0  0  0  0  0  0  0
  -30.8610   18.3833  -16.6635 C   0  0  0  0  0  0  0  0  0  0  0  0
  -30.1912   17.2693  -17.1381 C   0  0  0  0  0  0  0  0  0  0  0  0
  -29.9088   17.4079  -18.4836 N   0  0  0  0  0  0  0  0  0  0  0  0
  -29.9457   16.2441  -16.2096 C   0  0  0  0  0  0  0  0  0  0  0  0
  -30.3925   16.4017  -14.9418 N   0  0  0  0  0  0  0  0  0  0  0  0
  -31.0296   17.5513  -14.6235 C   0  0  0  0  0  0  0  0  0  0  0  0
  -31.3113   18.6034  -15.4204 N   0  0  0  0  0  0  0  0  0  0  0  0
  -29.2853   15.0648  -16.5324 N   0  0  0  0  0  0  0  0  0  0  0  0
  -29.0499   14.5037  -15.7214 H   0  0  0  0  0  0  0  0  0  0  0  0
  -28.5663   15.2123  -17.2279 H   0  0  0  0  0  0  0  0  0  0  0  0
  1  2  1  0  0  0  0
  1  6  2  0  0  0  0
  2  3  1  0  0  0  0
  2  4  1  0  0  0  0
  4  5  2  0  0  0  0
  4 10  1  0  0  0  0
  5  6  1  0  0  0  0
  5  7  1  0  0  0  0
  7  8  2  0  0  0  0
  7 11  1  0  0  0  0
  8  9  1  0  0  0  0
  9 10  2  0  0  0  0
 11 12  1  0  0  0  0
 11 13  1  0  0  0  0
M  END
>  <CHROM.0>
-60.17315648,-172.86818580,-66.79627774,-42.85111559,-55.08520224,-64.95798760
-68.62450738,-174.74416346,-168.75469697

>  <CHROM.1>
170.10241133,-30.41135538,17.45329415,-16.65945919,-1.89819893,-1.05392212
2.08302967

>  <Name>
adenine

>  <RI>
0

>  <Rbt.Current_Directory>
/home/fstefaniak/projects/zuza/docking/adenine/4TZX

>  <Rbt.Executable>
rbdock ($Id: //depot/dev/client3/rdock/2013.1/src/exe/rbdock.cxx#4 $)

>  <Rbt.Library>
libRbt.so (2013.1, Build901 2013/11/27)

>  <Rbt.Parameter_File>
/home/fstefaniak/progs/rDock//data/scripts/dock_solv.prm

>  <Rbt.Receptor>
4tzx.prm

>  <SCORE>
-65.3884

>  <SCORE.INTER>
-44.4014

>  <SCORE.INTER.CONST>
1

>  <SCORE.INTER.POLAR>
-5.49584

>  <SCORE.INTER.ROT>
1

>  <SCORE.INTER.SOLV>
13.3857

>  <SCORE.INTER.VDW>
-20.0101

>  <SCORE.INTER.norm>
-4.44014

>  <SCORE.INTRA>
0.00494649

>  <SCORE.INTRA.DIHEDRAL>
0.0226677

>  <SCORE.INTRA.DIHEDRAL.0>
0.467566

>  <SCORE.INTRA.POLAR>
0

>  <SCORE.INTRA.POLAR.0>
0

>  <SCORE.INTRA.REPUL>
0

>  <SCORE.INTRA.REPUL.0>
0

>  <SCORE.INTRA.SOLV>
0.00516237

>  <SCORE.INTRA.SOLV.lig_0>
-16.6672

>  <SCORE.INTRA.VDW>
-0.00896856

>  <SCORE.INTRA.VDW.0>
-0.139743

>  <SCORE.INTRA.norm>
0.000494649

>  <SCORE.RESTR>
0

>  <SCORE.RESTR.CAVITY>
0

>  <SCORE.RESTR.norm>
0

>  <SCORE.SYSTEM>
-20.9919

>  <SCORE.SYSTEM.CONST>
0

>  <SCORE.SYSTEM.DIHEDRAL>
5.12975

>  <SCORE.SYSTEM.POLAR>
-3.05964

>  <SCORE.SYSTEM.SOLV>
0.0111372

>  <SCORE.SYSTEM.VDW>
-5.50947

>  <SCORE.SYSTEM.norm>
-2.09919

>  <SCORE.heavy>
10

>  <SCORE.norm>
-6.53884

$$$$
guanine
 OpenBabel12072022113D
libRbt.so/2013.1/901 2013/11/27
 15 16  0  0  0  0  0  0  0  0999 V2000
  -30.6705   18.1981  -18.5361 C   0  0  0  0  0  0  0  0  0  0  0  0
  -29.5997   17.6736  -17.8616 N   0  0  0  0  0  0  0  0  0  0  0  0
  -28.7540   17.2923  -18.2652 H   0  0  0  0  0  0  0  0  0  0  0  0
  -29.8931   17.7653  -16.5344 C   0  0  0  0  0  0  0  0  0  0  0  0
  -29.1533   17.3799  -15.3932 C   0  0  0  0  0  0  0  0  0  0  0  0
  -28.0382   16.8731  -15.4132 O   0  0  0  0  0  0  0  0  0  0  0  0
  -29.8384   17.6442  -14.2323 N   0  0  0  0  0  0  0  0  0  0  0  0
  -29.3552   17.4415  -13.3738 H   0  0  0  0  0  0  0  0  0  0  0  0
  -31.0751   18.2443  -14.2024 C   0  0  0  0  0  0  0  0  0  0  0  0
  -31.7566   18.6105  -15.2483 N   0  0  0  0  0  0  0  0  0  0  0  0
  -31.1262   18.3479  -16.4659 C   0  0  0  0  0  0  0  0  0  0  0  0
  -31.6115   18.6126  -17.7125 N   0  0  0  0  0  0  0  0  0  0  0  0
  -31.5981   18.4483  -12.9641 N   0  0  0  0  0  0  0  0  0  0  0  0
  -31.4052   17.7341  -12.2745 H   0  0  0  0  0  0  0  0  0  0  0  0
  -32.5904   18.6650  -13.0205 H   0  0  0  0  0  0  0  0  0  0  0  0
  1  2  1  0  0  0  0
  1 12  2  0  0  0  0
  2  3  1  0  0  0  0
  2  4  1  0  0  0  0
  4  5  1  0  0  0  0
  4 11  2  0  0  0  0
  5  6  2  0  0  0  0
  5  7  1  0  0  0  0
  7  8  1  0  0  0  0
  7  9  1  0  0  0  0
  9 10  2  0  0  0  0
  9 13  1  0  0  0  0
 10 11  1  0  0  0  0
 11 12  1  0  0  0  0
 13 14  1  0  0  0  0
 13 15  1  0  0  0  0
M  END
>  <CHROM.0>
-60.51062691,-61.49039118,-65.01163180,-43.31205070,-176.38301348,-63.52694613
-67.19880328,-174.74819356,-168.93338583

>  <CHROM.1>
-35.92913241,-30.37146067,17.96278388,-15.81400184,1.42212549,0.43487763
-1.53080857

>  <Name>
guanine

>  <RI>
0

>  <Rbt.Current_Directory>
/home/fstefaniak/projects/zuza/docking/adenine/4TZX

>  <Rbt.Executable>
rbdock ($Id: //depot/dev/client3/rdock/2013.1/src/exe/rbdock.cxx#4 $)

>  <Rbt.Library>
libRbt.so (2013.1, Build901 2013/11/27)

>  <Rbt.Parameter_File>
/home/fstefaniak/progs/rDock//data/scripts/dock_solv.prm

>  <Rbt.Receptor>
4tzx.prm

>  <SCORE>
-61.8793

>  <SCORE.INTER>
-40.5323

>  <SCORE.INTER.CONST>
1

>  <SCORE.INTER.POLAR>
-5.09296

>  <SCORE.INTER.ROT>
1

>  <SCORE.INTER.SOLV>
14.4505

>  <SCORE.INTER.VDW>
-19.1285

>  <SCORE.INTER.norm>
-3.68475

>  <SCORE.INTRA>
0.00696479

>  <SCORE.INTRA.DIHEDRAL>
-0.000515878

>  <SCORE.INTRA.DIHEDRAL.0>
0.476907

>  <SCORE.INTRA.POLAR>
0

>  <SCORE.INTRA.POLAR.0>
0

>  <SCORE.INTRA.REPUL>
0

>  <SCORE.INTRA.REPUL.0>
0

>  <SCORE.INTRA.SOLV>
0.00115358

>  <SCORE.INTRA.SOLV.lig_0>
-19.5088

>  <SCORE.INTRA.VDW>
0.00664594

>  <SCORE.INTRA.VDW.0>
-0.187702

>  <SCORE.INTRA.norm>
0.000633163

>  <SCORE.RESTR>
0

>  <SCORE.RESTR.CAVITY>
0

>  <SCORE.RESTR.norm>
0

>  <SCORE.SYSTEM>
-21.354

>  <SCORE.SYSTEM.CONST>
0

>  <SCORE.SYSTEM.DIHEDRAL>
4.51647

>  <SCORE.SYSTEM.POLAR>
-3.04495

>  <SCORE.SYSTEM.SOLV>
-0.137876

>  <SCORE.SYSTEM.VDW>
-5.54571

>  <SCORE.SYSTEM.norm>
-1.94128

>  <SCORE.heavy>
11

>  <SCORE.norm>
-5.62539

$$$$
guanine
 OpenBabel12072022113D
libRbt.so/2013.1/901 2013/11/27
 15 16  0  0  0  0  0  0  0  0999 V2000
  -30.6439   18.2061  -18.5875 C   0  0  0  0  0  0  0  0  0  0  0  0
  -29.5851   17.6672  -17.9054 N   0  0  0  0  0  0  0  0  0  0  0  0
  -28.7345   17.2899  -18.3022 H   0  0  0  0  0  0  0  0  0  0  0  0
  -29.8985   17.7382  -16.5816 C   0  0  0  0  0  0  0  0  0  0  0  0
  -29.1775   17.3318  -15.4357 C   0  0  0  0  0  0  0  0  0  0  0  0
  -28.0637   16.8219  -15.4469 O   0  0  0  0  0  0  0  0  0  0  0  0
  -29.8795   17.5793  -14.2812 N   0  0  0  0  0  0  0  0  0  0  0  0
  -29.4101   17.3611  -13.4188 H   0  0  0  0  0  0  0  0  0  0  0  0
  -31.1147   18.1828  -14.2603 C   0  0  0  0  0  0  0  0  0  0  0  0
  -31.7791   18.5681  -15.3104 N   0  0  0  0  0  0  0  0  0  0  0  0
  -31.1309   18.3235  -16.5224 C   0  0  0  0  0  0  0  0  0  0  0  0
  -31.5962   18.6100  -17.7717 N   0  0  0  0  0  0  0  0  0  0  0  0
  -31.6561   18.3682  -13.0270 N   0  0  0  0  0  0  0  0  0  0  0  0
  -31.4879   17.6354  -12.3506 H   0  0  0  0  0  0  0  0  0  0  0  0
  -32.6434   18.6035  -13.0957 H   0  0  0  0  0  0  0  0  0  0  0  0
  1  2  1  0  0  0  0
  1 12  2  0  0  0  0
  2  3  1  0  0  0  0
  2  4  1  0  0  0  0
  4  5  1  0  0  0  0
  4 11  2  0  0  0  0
  5  6  2  0  0  0  0
  5  7  1  0  0  0  0
  7  8  1  0  0  0  0
  7  9  1  0  0  0  0
  9 10  2  0  0  0  0
  9 13  1  0  0  0  0
 10 11  1  0  0  0  0
 11 12  1  0  0  0  0
 13 14  1  0  0  0  0
 13 15  1  0  0  0  0
M  END
>  <CHROM.0>
-60.24315839,-62.28655956,-66.68157931,-43.52480161,-56.54532174,-60.90989175
-67.36101825,-57.47591490,-168.97580562

>  <CHROM.1>
-36.83951980,-30.38739398,17.92543357,-15.86544892,1.40487090,0.43720008
-1.50724566

>  <Name>
guanine

>  <RI>
0

>  <Rbt.Current_Directory>
/home/fstefaniak/projects/zuza/docking/adenine/4TZX

>  <Rbt.Executable>
rbdock ($Id: //depot/dev/client3/rdock/2013.1/src/exe/rbdock.cxx#4 $)

>  <Rbt.Library>
libRbt.so (2013.1, Build901 2013/11/27)

>  <Rbt.Parameter_File>
/home/fstefaniak/progs/rDock//data/scripts/dock_solv.prm

>  <Rbt.Receptor>
4tzx.prm

>  <SCORE>
-61.8557

>  <SCORE.INTER>
-40.6648

>  <SCORE.INTER.CONST>
1

>  <SCORE.INTER.POLAR>
-5.05845

>  <SCORE.INTER.ROT>
1

>  <SCORE.INTER.SOLV>
14.4312

>  <SCORE.INTER.VDW>
-19.3255

>  <SCORE.INTER.norm>
-3.6968

>  <SCORE.INTRA>
0.0051661

>  <SCORE.INTRA.DIHEDRAL>
-0.000402722

>  <SCORE.INTRA.DIHEDRAL.0>
0.476907

>  <SCORE.INTRA.POLAR>
0

>  <SCORE.INTRA.POLAR.0>
0

>  <SCORE.INTRA.REPUL>
0

>  <SCORE.INTRA.REPUL.0>
0

>  <SCORE.INTRA.SOLV>
0.000881374

>  <SCORE.INTRA.SOLV.lig_0>
-19.5088

>  <SCORE.INTRA.VDW>
0.00492678

>  <SCORE.INTRA.VDW.0>
-0.187702

>  <SCORE.INTRA.norm>
0.000469646

>  <SCORE.RESTR>
0

>  <SCORE.RESTR.CAVITY>
0

>  <SCORE.RESTR.norm>
0

>  <SCORE.SYSTEM>
-21.196

>  <SCORE.SYSTEM.CONST>
0

>  <SCORE.SYSTEM.DIHEDRAL>
4.44119

>  <SCORE.SYSTEM.POLAR>
-3.04992

>  <SCORE.SYSTEM.SOLV>
0.187912

>  <SCORE.SYSTEM.VDW>
-5.50729

>  <SCORE.SYSTEM.norm>
-1.92691

>  <SCORE.heavy>
11

>  <SCORE.norm>
-5.62324

$$$$
guanine
 OpenBabel12072022113D
libRbt.so/2013.1/901 2013/11/27
 15 16  0  0  0  0  0  0  0  0999 V2000
  -30.6443   18.1772  -18.5893 C   0  0  0  0  0  0  0  0  0  0  0  0
  -29.5849   17.6457  -17.9021 N   0  0  0  0  0  0  0  0  0  0  0  0
  -28.7346   17.2641  -18.2955 H   0  0  0  0  0  0  0  0  0  0  0  0
  -29.8975   17.7308  -16.5789 C   0  0  0  0  0  0  0  0  0  0  0  0
  -29.1756   17.3367  -15.4292 C   0  0  0  0  0  0  0  0  0  0  0  0
  -28.0618   16.8267  -15.4358 O   0  0  0  0  0  0  0  0  0  0  0  0
  -29.8768   17.5965  -14.2770 N   0  0  0  0  0  0  0  0  0  0  0  0
  -29.4068   17.3875  -13.4126 H   0  0  0  0  0  0  0  0  0  0  0  0
  -31.1121   18.2001  -14.2617 C   0  0  0  0  0  0  0  0  0  0  0  0
  -31.7772   18.5742  -15.3154 N   0  0  0  0  0  0  0  0  0  0  0  0
  -31.1298   18.3166  -16.5252 C   0  0  0  0  0  0  0  0  0  0  0  0
  -31.5960   18.5898  -17.7771 N   0  0  0  0  0  0  0  0  0  0  0  0
  -31.6526   18.3986  -13.0301 N   0  0  0  0  0  0  0  0  0  0  0  0
  -31.5300   17.6491  -12.3623 H   0  0  0  0  0  0  0  0  0  0  0  0
  -32.6250   18.6883  -13.1029 H   0  0  0  0  0  0  0  0  0  0  0  0
  1  2  1  0  0  0  0
  1 12  2  0  0  0  0
  2  3  1  0  0  0  0
  2  4  1  0  0  0  0
  4  5  1  0  0  0  0
  4 11  2  0  0  0  0
  5  6  2  0  0  0  0
  5  7  1  0  0  0  0
  7  8  1  0  0  0  0
  7  9  1  0  0  0  0
  9 10  2  0  0  0  0
  9 13  1  0  0  0  0
 10 11  1  0  0  0  0
 11 12  1  0  0  0  0
 13 14  1  0  0  0  0
 13 15  1  0  0  0  0
M  END
>  <CHROM.0>
-60.29947001,-62.72907615,-68.86121060,-43.34618034,-59.05347608,-59.97595401
-66.82768011,-173.49163114,-168.49623373

>  <CHROM.1>
-40.28276580,-30.38603109,17.92584200,-15.86461402,1.40488354,0.43749615
-1.51827678

>  <Name>
guanine

>  <RI>
0

>  <Rbt.Current_Directory>
/home/fstefaniak/projects/zuza/docking/adenine/4TZX

>  <Rbt.Executable>
rbdock ($Id: //depot/dev/client3/rdock/2013.1/src/exe/rbdock.cxx#4 $)

>  <Rbt.Library>
libRbt.so (2013.1, Build901 2013/11/27)

>  <Rbt.Parameter_File>
/home/fstefaniak/progs/rDock//data/scripts/dock_solv.prm

>  <Rbt.Receptor>
4tzx.prm

>  <SCORE>
-61.8353

>  <SCORE.INTER>
-40.7057

>  <SCORE.INTER.CONST>
1

>  <SCORE.INTER.POLAR>
-5.07339

>  <SCORE.INTER.ROT>
1

>  <SCORE.INTER.SOLV>
14.4371

>  <SCORE.INTER.VDW>
-19.3048

>  <SCORE.INTER.norm>
-3.70051

>  <SCORE.INTRA>
-0.00100885

>  <SCORE.INTRA.DIHEDRAL>
9.46934e-05

>  <SCORE.INTRA.DIHEDRAL.0>
0.476907

>  <SCORE.INTRA.POLAR>
0

>  <SCORE.INTRA.POLAR.0>
0

>  <SCORE.INTRA.REPUL>
0

>  <SCORE.INTRA.REPUL.0>
0

>  <SCORE.INTRA.SOLV>
-0.000193306

>  <SCORE.INTRA.SOLV.lig_0>
-19.5088

>  <SCORE.INTRA.VDW>
-0.00095954

>  <SCORE.INTRA.VDW.0>
-0.187702

>  <SCORE.INTRA.norm>
-9.17133e-05

>  <SCORE.RESTR>
0

>  <SCORE.RESTR.CAVITY>
0

>  <SCORE.RESTR.norm>
0

>  <SCORE.SYSTEM>
-21.1286

>  <SCORE.SYSTEM.CONST>
0

>  <SCORE.SYSTEM.DIHEDRAL>
4.74735

>  <SCORE.SYSTEM.POLAR>
-3.03866

>  <SCORE.SYSTEM.SOLV>
0.048024

>  <SCORE.SYSTEM.VDW>
-5.55536

>  <SCORE.SYSTEM.norm>
-1.92079

>  <SCORE.heavy>
11

>  <SCORE.norm>
-5.62139

$$$$
hypoxanthine
 OpenBabel12072022113D
libRbt.so/2013.1/901 2013/11/27
 12 13  0  0  0  0  0  0  0  0999 V2000
  -29.0866   16.0322  -15.6134 C   0  0  0  0  0  0  0  0  0  0  0  0
  -28.9567   16.3855  -16.9307 N   0  0  0  0  0  0  0  0  0  0  0  0
  -28.2351   16.0839  -17.5724 H   0  0  0  0  0  0  0  0  0  0  0  0
  -29.9917   17.2259  -17.2127 C   0  0  0  0  0  0  0  0  0  0  0  0
  -30.3448   17.8871  -18.4134 C   0  0  0  0  0  0  0  0  0  0  0  0
  -29.7333   17.8059  -19.4712 O   0  0  0  0  0  0  0  0  0  0  0  0
  -31.4765   18.6487  -18.2580 N   0  0  0  0  0  0  0  0  0  0  0  0
  -31.7954   19.1538  -19.0709 H   0  0  0  0  0  0  0  0  0  0  0  0
  -32.1553   18.7313  -17.0612 C   0  0  0  0  0  0  0  0  0  0  0  0
  -31.8480   18.1347  -15.9538 N   0  0  0  0  0  0  0  0  0  0  0  0
  -30.7014   17.3422  -16.0497 C   0  0  0  0  0  0  0  0  0  0  0  0
  -30.1371   16.5994  -15.0565 N   0  0  0  0  0  0  0  0  0  0  0  0
  1  2  1  0  0  0  0
  1 12  2  0  0  0  0
  2  3  1  0  0  0  0
  2  4  1  0  0  0  0
  4  5  1  0  0  0  0
  4 11  2  0  0  0  0
  5  6  2  0  0  0  0
  5  7  1  0  0  0  0
  7  8  1  0  0  0  0
  7  9  1  0  0  0  0
  9 10  2  0  0  0  0
 10 11  1  0  0  0  0
 11 12  1  0  0  0  0
M  END
>  <CHROM.0>
-62.75271880,-60.40841568,-66.88822378,-43.65765618,-178.93533204,-60.88030882
-65.83535018,-61.79093461,-168.86838412

>  <CHROM.1>
-30.42810621,17.48729800,-17.05757736,-1.09405230,0.59815020,-1.24384911

>  <Name>
hypoxanthine

>  <RI>
0

>  <Rbt.Current_Directory>
/home/fstefaniak/projects/zuza/docking/adenine/4TZX

>  <Rbt.Executable>
rbdock ($Id: //depot/dev/client3/rdock/2013.1/src/exe/rbdock.cxx#4 $)

>  <Rbt.Library>
libRbt.so (2013.1, Build901 2013/11/27)

>  <Rbt.Parameter_File>
/home/fstefaniak/progs/rDock//data/scripts/dock_solv.prm

>  <Rbt.Receptor>
4tzx.prm

>  <SCORE>
-51.0366

>  <SCORE.INTER>
-29.6965

>  <SCORE.INTER.CONST>
1

>  <SCORE.INTER.POLAR>
-3.65711

>  <SCORE.INTER.ROT>
0

>  <SCORE.INTER.SOLV>
11.7968

>  <SCORE.INTER.VDW>
-15.1396

>  <SCORE.INTER.norm>
-2.96965

>  <SCORE.INTRA>
0

>  <SCORE.INTRA.DIHEDRAL>
0

>  <SCORE.INTRA.DIHEDRAL.0>
0

>  <SCORE.INTRA.POLAR>
0

>  <SCORE.INTRA.POLAR.0>
0

>  <SCORE.INTRA.REPUL>
0

>  <SCORE.INTRA.REPUL.0>
0

>  <SCORE.INTRA.SOLV>
0

>  <SCORE.INTRA.SOLV.lig_0>
-17.0136

>  <SCORE.INTRA.VDW>
0

>  <SCORE.INTRA.VDW.0>
0

>  <SCORE.INTRA.norm>
0

>  <SCORE.RESTR>
0

>  <SCORE.RESTR.CAVITY>
0

>  <SCORE.RESTR.norm>
0

>  <SCORE.SYSTEM>
-21.34

>  <SCORE.SYSTEM.CONST>
0

>  <SCORE.SYSTEM.DIHEDRAL>
4.302

>  <SCORE.SYSTEM.POLAR>
-3.02293

>  <SCORE.SYSTEM.SOLV>
-0.00622396

>  <SCORE.SYSTEM.VDW>
-5.5822

>  <SCORE.SYSTEM.norm>
-2.134

>  <SCORE.heavy>
10

>  <SCORE.norm>
-5.10366

$$$$
hypoxanthine
 OpenBabel12072022113D
libRbt.so/2013.1/901 2013/11/27
 12 13  0  0  0  0  0  0  0  0999 V2000
  -29.1587   15.9396  -15.5688 C   0  0  0  0  0  0  0  0  0  0  0  0
  -29.0037   16.2866  -16.8849 N   0  0  0  0  0  0  0  0  0  0  0  0
  -28.2853   15.9613  -17.5187 H   0  0  0  0  0  0  0  0  0  0  0  0
  -30.0084   17.1592  -17.1789 C   0  0  0  0  0  0  0  0  0  0  0  0
  -30.3275   17.8296  -18.3839 C   0  0  0  0  0  0  0  0  0  0  0  0
  -29.7078   17.7275  -19.4351 O   0  0  0  0  0  0  0  0  0  0  0  0
  -31.4360   18.6271  -18.2413 N   0  0  0  0  0  0  0  0  0  0  0  0
  -31.7300   19.1409  -19.0582 H   0  0  0  0  0  0  0  0  0  0  0  0
  -32.1245   18.7329  -17.0519 C   0  0  0  0  0  0  0  0  0  0  0  0
  -31.8481   18.1284  -15.9407 N   0  0  0  0  0  0  0  0  0  0  0  0
  -30.7263   17.2996  -16.0236 C   0  0  0  0  0  0  0  0  0  0  0  0
  -30.1965   16.5406  -15.0237 N   0  0  0  0  0  0  0  0  0  0  0  0
  1  2  1  0  0  0  0
  1 12  2  0  0  0  0
  2  3  1  0  0  0  0
  2  4  1  0  0  0  0
  4  5  1  0  0  0  0
  4 11  2  0  0  0  0
  5  6  2  0  0  0  0
  5  7  1  0  0  0  0
  7  8  1  0  0  0  0
  7  9  1  0  0  0  0
  9 10  2  0  0  0  0
 10 11  1  0  0  0  0
 11 12  1  0  0  0  0
M  END
>  <CHROM.0>
-54.59674108,-62.75840310,-66.57505549,-43.04834434,-175.49677024,-58.19915092
-66.36765613,-175.42394972,-168.80968307

>  <CHROM.1>
-30.43787979,17.43456114,-17.02864995,-1.11901323,0.62476451,-1.23075505

>  <Name>
hypoxanthine

>  <RI>
0

>  <Rbt.Current_Directory>
/home/fstefaniak/projects/zuza/docking/adenine/4TZX

>  <Rbt.Executable>
rbdock ($Id: //depot/dev/client3/rdock/2013.1/src/exe/rbdock.cxx#4 $)

>  <Rbt.Library>
libRbt.so (2013.1, Build901 2013/11/27)

>  <Rbt.Parameter_File>
/home/fstefaniak/progs/rDock//data/scripts/dock_solv.prm

>  <Rbt.Receptor>
4tzx.prm

>  <SCORE>
-51.0011

>  <SCORE.INTER>
-29.8647

>  <SCORE.INTER.CONST>
1

>  <SCORE.INTER.POLAR>
-3.57899

>  <SCORE.INTER.ROT>
0

>  <SCORE.INTER.SOLV>
11.7587

>  <SCORE.INTER.VDW>
-15.4994

>  <SCORE.INTER.norm>
-2.98647

>  <SCORE.INTRA>
0

>  <SCORE.INTRA.DIHEDRAL>
0

>  <SCORE.INTRA.DIHEDRAL.0>
0

>  <SCORE.INTRA.POLAR>
0

>  <SCORE.INTRA.POLAR.0>
0

>  <SCORE.INTRA.REPUL>
0

>  <SCORE.INTRA.REPUL.0>
0

>  <SCORE.INTRA.SOLV>
0

>  <SCORE.INTRA.SOLV.lig_0>
-17.0136

>  <SCORE.INTRA.VDW>
0

>  <SCORE.INTRA.VDW.0>
0

>  <SCORE.INTRA.norm>
0

>  <SCORE.RESTR>
0.0385927

>  <SCORE.RESTR.CAVITY>
0.0385927

>  <SCORE.RESTR.norm>
0.00385927

>  <SCORE.SYSTEM>
-21.1749

>  <SCORE.SYSTEM.CONST>
0

>  <SCORE.SYSTEM.DIHEDRAL>
4.71512

>  <SCORE.SYSTEM.POLAR>
-3.09393

>  <SCORE.SYSTEM.SOLV>
-0.117744

>  <SCORE.SYSTEM.VDW>
-5.33599

>  <SCORE.SYSTEM.norm>
-2.11749

>  <SCORE.heavy>
10

>  <SCORE.norm>
-5.10011

$$$$
hypoxanthine
 OpenBabel12072022113D
libRbt.so/2013.1/901 2013/11/27
 12 13  0  0  0  0  0  0  0  0999 V2000
  -29.1197   16.0225  -15.6035 C   0  0  0  0  0  0  0  0  0  0  0  0
  -28.9595   16.3864  -16.9144 N   0  0  0  0  0  0  0  0  0  0  0  0
  -28.2253   16.0871  -17.5429 H   0  0  0  0  0  0  0  0  0  0  0  0
  -29.9845   17.2339  -17.2117 C   0  0  0  0  0  0  0  0  0  0  0  0
  -30.3084   17.9069  -18.4140 C   0  0  0  0  0  0  0  0  0  0  0  0
  -29.6743   17.8320  -19.4589 O   0  0  0  0  0  0  0  0  0  0  0  0
  -31.4400   18.6723  -18.2767 N   0  0  0  0  0  0  0  0  0  0  0  0
  -31.7388   19.1857  -19.0920 H   0  0  0  0  0  0  0  0  0  0  0  0
  -32.1444   18.7476  -17.0943 C   0  0  0  0  0  0  0  0  0  0  0  0
  -31.8639   18.1402  -15.9857 N   0  0  0  0  0  0  0  0  0  0  0  0
  -30.7189   17.3434  -16.0634 C   0  0  0  0  0  0  0  0  0  0  0  0
  -30.1796   16.5895  -15.0647 N   0  0  0  0  0  0  0  0  0  0  0  0
  1  2  1  0  0  0  0
  1 12  2  0  0  0  0
  2  3  1  0  0  0  0
  2  4  1  0  0  0  0
  4  5  1  0  0  0  0
  4 11  2  0  0  0  0
  5  6  2  0  0  0  0
  5  7  1  0  0  0  0
  7  8  1  0  0  0  0
  7  9  1  0  0  0  0
  9 10  2  0  0  0  0
 10 11  1  0  0  0  0
 11 12  1  0  0  0  0
M  END
>  <CHROM.0>
-59.59225170,-60.60689665,-65.23175422,-43.36849215,-177.72303855,-59.81535517
-68.35790491,-58.23629828,-168.91887149

>  <CHROM.1>
-30.42303010,17.49588841,-17.06384730,-1.12070869,0.59505714,-1.22025664

>  <Name>
hypoxanthine

>  <RI>
0

>  <Rbt.Current_Directory>
/home/fstefaniak/projects/zuza/docking/adenine/4TZX

>  <Rbt.Executable>
rbdock ($Id: //depot/dev/client3/rdock/2013.1/src/exe/rbdock.cxx#4 $)

>  <Rbt.Library>
libRbt.so (2013.1, Build901 2013/11/27)

>  <Rbt.Parameter_File>
/home/fstefaniak/progs/rDock//data/scripts/dock_solv.prm

>  <Rbt.Receptor>
4tzx.prm

>  <SCORE>
-50.9929

>  <SCORE.INTER>
-29.6582

>  <SCORE.INTER.CONST>
1

>  <SCORE.INTER.POLAR>
-3.5677

>  <SCORE.INTER.ROT>
0

>  <SCORE.INTER.SOLV>
11.826

>  <SCORE.INTER.VDW>
-15.4218

>  <SCORE.INTER.norm>
-2.96582

>  <SCORE.INTRA>
0

>  <SCORE.INTRA.DIHEDRAL>
0

>  <SCORE.INTRA.DIHEDRAL.0>
0

>  <SCORE.INTRA.POLAR>
0

>  <SCORE.INTRA.POLAR.0>
0

>  <SCORE.INTRA.REPUL>
0

>  <SCORE.INTRA.REPUL.0>
0

>  <SCORE.INTRA.SOLV>
0

>  <SCORE.INTRA.SOLV.lig_0>
-17.0136

>  <SCORE.INTRA.VDW>
0

>  <SCORE.INTRA.VDW.0>
0

>  <SCORE.INTRA.norm>
0

>  <SCORE.RESTR>
0.000438126

>  <SCORE.RESTR.CAVITY>
0.000438126

>  <SCORE.RESTR.norm>
4.38126e-05

>  <SCORE.SYSTEM>
-21.3352

>  <SCORE.SYSTEM.CONST>
0

>  <SCORE.SYSTEM.DIHEDRAL>
4.38845

>  <SCORE.SYSTEM.POLAR>
-3.05005

>  <SCORE.SYSTEM.SOLV>
0.00340315

>  <SCORE.SYSTEM.VDW>
-5.52057

>  <SCORE.SYSTEM.norm>
-2.13352

>  <SCORE.heavy>
10

>  <SCORE.norm>
-5.09929

$$$$
purine
 OpenBabel12072022113D
libRbt.so/2013.1/901 2013/11/27
 10 11  0  0  0  0  0  0  0  0999 V2000
  -29.9025   16.5672  -16.1762 C   0  0  0  0  0  0  0  0  0  0  0  0
  -30.1883   17.5680  -17.0980 C   0  0  0  0  0  0  0  0  0  0  0  0
  -30.8846   18.6621  -16.6114 C   0  0  0  0  0  0  0  0  0  0  0  0
  -31.0401   19.4885  -17.6856 N   0  0  0  0  0  0  0  0  0  0  0  0
  -31.5097   20.3810  -17.6717 H   0  0  0  0  0  0  0  0  0  0  0  0
  -30.4472   18.8816  -18.7597 C   0  0  0  0  0  0  0  0  0  0  0  0
  -29.9216   17.7172  -18.4390 N   0  0  0  0  0  0  0  0  0  0  0  0
  -31.3167   18.8733  -15.3591 N   0  0  0  0  0  0  0  0  0  0  0  0
  -30.9821   17.8388  -14.5593 C   0  0  0  0  0  0  0  0  0  0  0  0
  -30.3095   16.7120  -14.8872 N   0  0  0  0  0  0  0  0  0  0  0  0
  1  2  2  0  0  0  0
  1 10  1  0  0  0  0
  2  3  1  0  0  0  0
  2  7  1  0  0  0  0
  3  4  1  0  0  0  0
  3  8  2  0  0  0  0
  4  5  1  0  0  0  0
  4  6  1  0  0  0  0
  6  7  2  0  0  0  0
  8  9  1  0  0  0  0
  9 10  2  0  0  0  0
M  END
>  <CHROM.0>
-59.60993640,-175.85581118,-65.99101430,-43.49004405,-176.27349766,-60.73353946
-66.23827001,-59.64546358,-169.52894569

>  <CHROM.1>
-30.56608365,18.05801248,-16.62351107,-1.64879741,1.04373820,-1.11345501

>  <Name>
purine

>  <RI>
0

>  <Rbt.Current_Directory>
/home/fstefaniak/projects/zuza/docking/adenine/4TZX

>  <Rbt.Executable>
rbdock ($Id: //depot/dev/client3/rdock/2013.1/src/exe/rbdock.cxx#4 $)

>  <Rbt.Library>
libRbt.so (2013.1, Build901 2013/11/27)

>  <Rbt.Parameter_File>
/home/fstefaniak/progs/rDock//data/scripts/dock_solv.prm

>  <Rbt.Receptor>
4tzx.prm

>  <SCORE>
-59.1031

>  <SCORE.INTER>
-37.919

>  <SCORE.INTER.CONST>
1

>  <SCORE.INTER.POLAR>
-4.2305

>  <SCORE.INTER.ROT>
0

>  <SCORE.INTER.SOLV>
11.736

>  <SCORE.INTER.VDW>
-18.6897

>  <SCORE.INTER.norm>
-4.21323

>  <SCORE.INTRA>
0

>  <SCORE.INTRA.DIHEDRAL>
0

>  <SCORE.INTRA.DIHEDRAL.0>
0

>  <SCORE.INTRA.POLAR>
0

>  <SCORE.INTRA.POLAR.0>
0

>  <SCORE.INTRA.REPUL>
0

>  <SCORE.INTRA.REPUL.0>
0

>  <SCORE.INTRA.SOLV>
0

>  <SCORE.INTRA.SOLV.lig_0>
-13.6323

>  <SCORE.INTRA.VDW>
0

>  <SCORE.INTRA.VDW.0>
0

>  <SCORE.INTRA.norm>
0

>  <SCORE.RESTR>
0

>  <SCORE.RESTR.CAVITY>
0

>  <SCORE.RESTR.norm>
0

>  <SCORE.SYSTEM>
-21.1841

>  <SCORE.SYSTEM.CONST>
0

>  <SCORE.SYSTEM.DIHEDRAL>
4.3247

>  <SCORE.SYSTEM.POLAR>
-3.03058

>  <SCORE.SYSTEM.SOLV>
-0.0255166

>  <SCORE.SYSTEM.VDW>
-5.45387

>  <SCORE.SYSTEM.norm>
-2.35379

>  <SCORE.heavy>
9

>  <SCORE.norm>
-6.56702

$$$$
purine
 OpenBabel12072022113D
libRbt.so/2013.1/901 2013/11/27
 10 11  0  0  0  0  0  0  0  0999 V2000
  -29.9400   16.5243  -16.0717 C   0  0  0  0  0  0  0  0  0  0  0  0
  -30.2106   17.5181  -17.0056 C   0  0  0  0  0  0  0  0  0  0  0  0
  -30.9507   18.5963  -16.5491 C   0  0  0  0  0  0  0  0  0  0  0  0
  -31.0810   19.4186  -17.6297 N   0  0  0  0  0  0  0  0  0  0  0  0
  -31.5708   20.3003  -17.6360 H   0  0  0  0  0  0  0  0  0  0  0  0
  -30.4313   18.8250  -18.6781 C   0  0  0  0  0  0  0  0  0  0  0  0
  -29.8929   17.6729  -18.3349 N   0  0  0  0  0  0  0  0  0  0  0  0
  -31.4380   18.7981  -15.3157 N   0  0  0  0  0  0  0  0  0  0  0  0
  -31.1130   17.7717  -14.5017 C   0  0  0  0  0  0  0  0  0  0  0  0
  -30.4022   16.6602  -14.8005 N   0  0  0  0  0  0  0  0  0  0  0  0
  1  2  2  0  0  0  0
  1 10  1  0  0  0  0
  2  3  1  0  0  0  0
  2  7  1  0  0  0  0
  3  4  1  0  0  0  0
  3  8  2  0  0  0  0
  4  5  1  0  0  0  0
  4  6  1  0  0  0  0
  6  7  2  0  0  0  0
  8  9  1  0  0  0  0
  9 10  2  0  0  0  0
M  END
>  <CHROM.0>
-60.51443970,-176.72266111,-67.52317153,-43.57810573,-178.31188990,-62.99879095
-66.64515332,-58.99546235,-168.86442343

>  <CHROM.1>
-30.61834041,17.99958967,-16.54748622,-1.69831096,1.00491038,-1.07192011

>  <Name>
purine

>  <RI>
0

>  <Rbt.Current_Directory>
/home/fstefaniak/projects/zuza/docking/adenine/4TZX

>  <Rbt.Executable>
rbdock ($Id: //depot/dev/client3/rdock/2013.1/src/exe/rbdock.cxx#4 $)

>  <Rbt.Library>
libRbt.so (2013.1, Build901 2013/11/27)

>  <Rbt.Parameter_File>
/home/fstefaniak/progs/rDock//data/scripts/dock_solv.prm

>  <Rbt.Receptor>
4tzx.prm

>  <SCORE>
-59.1031

>  <SCORE.INTER>
-37.8425

>  <SCORE.INTER.CONST>
1

>  <SCORE.INTER.POLAR>
-4.2305

>  <SCORE.INTER.ROT>
0

>  <SCORE.INTER.SOLV>
11.7784

>  <SCORE.INTER.VDW>
-18.6528

>  <SCORE.INTER.norm>
-4.20472

>  <SCORE.INTRA>
0

>  <SCORE.INTRA.DIHEDRAL>
0

>  <SCORE.INTRA.DIHEDRAL.0>
0

>  <SCORE.INTRA.POLAR>
0

>  <SCORE.INTRA.POLAR.0>
0

>  <SCORE.INTRA.REPUL>
0

>  <SCORE.INTRA.REPUL.0>
0

>  <SCORE.INTRA.SOLV>
0

>  <SCORE.INTRA.SOLV.lig_0>
-13.6323

>  <SCORE.INTRA.VDW>
0

>  <SCORE.INTRA.VDW.0>
0

>  <SCORE.INTRA.norm>
0

>  <SCORE.RESTR>
0

>  <SCORE.RESTR.CAVITY>
0

>  <SCORE.RESTR.norm>
0

>  <SCORE.SYSTEM>
-21.2606

>  <SCORE.SYSTEM.CONST>
0

>  <SCORE.SYSTEM.DIHEDRAL>
4.4523

>  <SCORE.SYSTEM.POLAR>
-3.03625

>  <SCORE.SYSTEM.SOLV>
-0.0336982

>  <SCORE.SYSTEM.VDW>
-5.52576

>  <SCORE.SYSTEM.norm>
-2.36229

>  <SCORE.heavy>
9

>  <SCORE.norm>
-6.56701

$$$$
purine
 OpenBabel12072022113D
libRbt.so/2013.1/901 2013/11/27
 10 11  0  0  0  0  0  0  0  0999 V2000
  -29.9183   16.5550  -16.1797 C   0  0  0  0  0  0  0  0  0  0  0  0
  -30.1989   17.5615  -17.0968 C   0  0  0  0  0  0  0  0  0  0  0  0
  -30.8877   18.6579  -16.6046 C   0  0  0  0  0  0  0  0  0  0  0  0
  -31.0393   19.4898  -17.6750 N   0  0  0  0  0  0  0  0  0  0  0  0
  -31.5032   20.3853  -17.6566 H   0  0  0  0  0  0  0  0  0  0  0  0
  -30.4516   18.8839  -18.7525 C   0  0  0  0  0  0  0  0  0  0  0  0
  -29.9329   17.7148  -18.4375 N   0  0  0  0  0  0  0  0  0  0  0  0
  -31.3168   18.8664  -15.3509 N   0  0  0  0  0  0  0  0  0  0  0  0
  -30.9878   17.8264  -14.5559 C   0  0  0  0  0  0  0  0  0  0  0  0
  -30.3227   16.6967  -14.8895 N   0  0  0  0  0  0  0  0  0  0  0  0
  1  2  2  0  0  0  0
  1 10  1  0  0  0  0
  2  3  1  0  0  0  0
  2  7  1  0  0  0  0
  3  4  1  0  0  0  0
  3  8  2  0  0  0  0
  4  5  1  0  0  0  0
  4  6  1  0  0  0  0
  6  7  2  0  0  0  0
  8  9  1  0  0  0  0
  9 10  2  0  0  0  0
M  END
>  <CHROM.0>
-56.05452034,-176.60576668,-64.95261035,-44.13873932,-177.94611366,-62.09596981
-68.57389875,-60.93423487,-169.19764518

>  <CHROM.1>
-30.57299090,18.05186638,-16.61970697,-1.65213732,1.04997094,-1.10625948

>  <Name>
purine

>  <RI>
0

>  <Rbt.Current_Directory>
/home/fstefaniak/projects/zuza/docking/adenine/4TZX

>  <Rbt.Executable>
rbdock ($Id: //depot/dev/client3/rdock/2013.1/src/exe/rbdock.cxx#4 $)

>  <Rbt.Library>
libRbt.so (2013.1, Build901 2013/11/27)

>  <Rbt.Parameter_File>
/home/fstefaniak/progs/rDock//data/scripts/dock_solv.prm

>  <Rbt.Receptor>
4tzx.prm

>  <SCORE>
-59.0712

>  <SCORE.INTER>
-37.8958

>  <SCORE.INTER.CONST>
1

>  <SCORE.INTER.POLAR>
-4.2305

>  <SCORE.INTER.ROT>
0

>  <SCORE.INTER.SOLV>
11.7553

>  <SCORE.INTER.VDW>
-18.6806

>  <SCORE.INTER.norm>
-4.21064

>  <SCORE.INTRA>
0

>  <SCORE.INTRA.DIHEDRAL>
0

>  <SCORE.INTRA.DIHEDRAL.0>
0

>  <SCORE.INTRA.POLAR>
0

>  <SCORE.INTRA.POLAR.0>
0

>  <SCORE.INTRA.REPUL>
0

>  <SCORE.INTRA.REPUL.0>
0

>  <SCORE.INTRA.SOLV>
0

>  <SCORE.INTRA.SOLV.lig_0>
-13.6323

>  <SCORE.INTRA.VDW>
0

>  <SCORE.INTRA.VDW.0>
0

>  <SCORE.INTRA.norm>
0

>  <SCORE.RESTR>
0

>  <SCORE.RESTR.CAVITY>
0

>  <SCORE.RESTR.norm>
0

>  <SCORE.SYSTEM>
-21.1755

>  <SCORE.SYSTEM.CONST>
0

>  <SCORE.SYSTEM.DIHEDRAL>
4.3888

>  <SCORE.SYSTEM.POLAR>
-3.04818

>  <SCORE.SYSTEM.SOLV>
-0.0289681

>  <SCORE.SYSTEM.VDW>
-5.40967

>  <SCORE.SYSTEM.norm>
-2.35283

>  <SCORE.heavy>
9

>  <SCORE.norm>
-6.56347

$$$$
xanthine
 OpenBabel12072022113D
libRbt.so/2013.1/901 2013/11/27
 14 15  0  0  0  0  0  0  0  0999 V2000
  -30.8238   18.1631  -13.1017 C   0  0  0  0  0  0  0  0  0  0  0  0
  -29.6032   17.6148  -13.4149 N   0  0  0  0  0  0  0  0  0  0  0  0
  -28.8795   17.3301  -12.7670 H   0  0  0  0  0  0  0  0  0  0  0  0
  -29.5562   17.5284  -14.7741 C   0  0  0  0  0  0  0  0  0  0  0  0
  -30.7484   18.0283  -15.2028 C   0  0  0  0  0  0  0  0  0  0  0  0
  -31.5406   18.4240  -14.1794 N   0  0  0  0  0  0  0  0  0  0  0  0
  -31.0399   18.0914  -16.5301 N   0  0  0  0  0  0  0  0  0  0  0  0
  -31.9302   18.4662  -16.8227 H   0  0  0  0  0  0  0  0  0  0  0  0
  -30.1330   17.6501  -17.4612 C   0  0  0  0  0  0  0  0  0  0  0  0
  -30.3651   17.6932  -18.6667 O   0  0  0  0  0  0  0  0  0  0  0  0
  -28.9354   17.1502  -16.9845 N   0  0  0  0  0  0  0  0  0  0  0  0
  -28.2763   16.8288  -17.6756 H   0  0  0  0  0  0  0  0  0  0  0  0
  -28.5559   17.0485  -15.6605 C   0  0  0  0  0  0  0  0  0  0  0  0
  -27.4750   16.5935  -15.3077 O   0  0  0  0  0  0  0  0  0  0  0  0
  1  2  1  0  0  0  0
  1  6  2  0  0  0  0
  2  3  1  0  0  0  0
  2  4  1  0  0  0  0
  4  5  2  0  0  0  0
  4 13  1  0  0  0  0
  5  6  1  0  0  0  0
  5  7  1  0  0  0  0
  7  8  1  0  0  0  0
  7  9  1  0  0  0  0
  9 10  2  0  0  0  0
  9 11  1  0  0  0  0
 11 12  1  0  0  0  0
 11 13  1  0  0  0  0
 13 14  2  0  0  0  0
M  END
>  <CHROM.0>
-57.66293777,-61.41492093,-67.54527531,-43.39174310,-178.52842497,-63.03749206
-66.97591754,-61.02330899,-168.79564151

>  <CHROM.1>
-29.86083490,17.62061935,-15.61735504,1.70660634,-0.41138695,1.52239990

>  <Name>
xanthine

>  <RI>
0

>  <Rbt.Current_Directory>
/home/fstefaniak/projects/zuza/docking/adenine/4TZX

>  <Rbt.Executable>
rbdock ($Id: //depot/dev/client3/rdock/2013.1/src/exe/rbdock.cxx#4 $)

>  <Rbt.Library>
libRbt.so (2013.1, Build901 2013/11/27)

>  <Rbt.Parameter_File>
/home/fstefaniak/progs/rDock//data/scripts/dock_solv.prm

>  <Rbt.Receptor>
4tzx.prm

>  <SCORE>
-50.3933

>  <SCORE.INTER>
-29.0461

>  <SCORE.INTER.CONST>
1

>  <SCORE.INTER.POLAR>
-3.52611

>  <SCORE.INTER.ROT>
0

>  <SCORE.INTER.SOLV>
12.7089

>  <SCORE.INTER.VDW>
-15.4467

>  <SCORE.INTER.norm>
-2.64056

>  <SCORE.INTRA>
0

>  <SCORE.INTRA.DIHEDRAL>
0

>  <SCORE.INTRA.DIHEDRAL.0>
0

>  <SCORE.INTRA.POLAR>
0

>  <SCORE.INTRA.POLAR.0>
0

>  <SCORE.INTRA.REPUL>
0

>  <SCORE.INTRA.REPUL.0>
0

>  <SCORE.INTRA.SOLV>
0

>  <SCORE.INTRA.SOLV.lig_0>
-20.3028

>  <SCORE.INTRA.VDW>
0

>  <SCORE.INTRA.VDW.0>
0

>  <SCORE.INTRA.norm>
0

>  <SCORE.RESTR>
0

>  <SCORE.RESTR.CAVITY>
0

>  <SCORE.RESTR.norm>
0

>  <SCORE.SYSTEM>
-21.3472

>  <SCORE.SYSTEM.CONST>
0

>  <SCORE.SYSTEM.DIHEDRAL>
4.4863

>  <SCORE.SYSTEM.POLAR>
-3.05664

>  <SCORE.SYSTEM.SOLV>
-0.00362153

>  <SCORE.SYSTEM.VDW>
-5.53688

>  <SCORE.SYSTEM.norm>
-1.94065

>  <SCORE.heavy>
11

>  <SCORE.norm>
-4.58121

$$$$
xanthine
 OpenBabel12072022113D
libRbt.so/2013.1/901 2013/11/27
 14 15  0  0  0  0  0  0  0  0999 V2000
  -30.8300   18.1845  -13.0468 C   0  0  0  0  0  0  0  0  0  0  0  0
  -29.6178   17.6287  -13.3788 N   0  0  0  0  0  0  0  0  0  0  0  0
  -28.8893   17.3320  -12.7418 H   0  0  0  0  0  0  0  0  0  0  0  0
  -29.5869   17.5544  -14.7392 C   0  0  0  0  0  0  0  0  0  0  0  0
  -30.7795   18.0684  -15.1497 C   0  0  0  0  0  0  0  0  0  0  0  0
  -31.5566   18.4614  -14.1139 N   0  0  0  0  0  0  0  0  0  0  0  0
  -31.0854   18.1461  -16.4730 N   0  0  0  0  0  0  0  0  0  0  0  0
  -31.9758   18.5311  -16.7520 H   0  0  0  0  0  0  0  0  0  0  0  0
  -30.1929   17.7057  -17.4184 C   0  0  0  0  0  0  0  0  0  0  0  0
  -30.4382   17.7618  -18.6207 O   0  0  0  0  0  0  0  0  0  0  0  0
  -28.9944   17.1912  -16.9598 N   0  0  0  0  0  0  0  0  0  0  0  0
  -28.3459   16.8706  -17.6613 H   0  0  0  0  0  0  0  0  0  0  0  0
  -28.6008   17.0742  -15.6413 C   0  0  0  0  0  0  0  0  0  0  0  0
  -27.5200   16.6068  -15.3049 O   0  0  0  0  0  0  0  0  0  0  0  0
  1  2  1  0  0  0  0
  1  6  2  0  0  0  0
  2  3  1  0  0  0  0
  2  4  1  0  0  0  0
  4  5  2  0  0  0  0
  4 13  1  0  0  0  0
  5  6  1  0  0  0  0
  5  7  1  0  0  0  0
  7  8  1  0  0  0  0
  7  9  1  0  0  0  0
  9 10  2  0  0  0  0
  9 11  1  0  0  0  0
 11 12  1  0  0  0  0
 11 13  1  0  0  0  0
 13 14  2  0  0  0  0
M  END
>  <CHROM.0>
-59.51974342,-61.21728411,-68.29521888,-42.24543152,-175.64727373,-63.40465823
-66.46101664,-60.05959979,-169.08721232

>  <CHROM.1>
-29.90021630,17.65695364,-15.57805303,1.69378860,-0.41941093,1.52633968

>  <Name>
xanthine

>  <RI>
0

>  <Rbt.Current_Directory>
/home/fstefaniak/projects/zuza/docking/adenine/4TZX

>  <Rbt.Executable>
rbdock ($Id: //depot/dev/client3/rdock/2013.1/src/exe/rbdock.cxx#4 $)

>  <Rbt.Library>
libRbt.so (2013.1, Build901 2013/11/27)

>  <Rbt.Parameter_File>
/home/fstefaniak/progs/rDock//data/scripts/dock_solv.prm

>  <Rbt.Receptor>
4tzx.prm

>  <SCORE>
-50.2903

>  <SCORE.INTER>
-28.9835

>  <SCORE.INTER.CONST>
1

>  <SCORE.INTER.POLAR>
-3.53764

>  <SCORE.INTER.ROT>
0

>  <SCORE.INTER.SOLV>
12.7147

>  <SCORE.INTER.VDW>
-15.3684

>  <SCORE.INTER.norm>
-2.63486

>  <SCORE.INTRA>
0

>  <SCORE.INTRA.DIHEDRAL>
0

>  <SCORE.INTRA.DIHEDRAL.0>
0

>  <SCORE.INTRA.POLAR>
0

>  <SCORE.INTRA.POLAR.0>
0

>  <SCORE.INTRA.REPUL>
0

>  <SCORE.INTRA.REPUL.0>
0

>  <SCORE.INTRA.SOLV>
0

>  <SCORE.INTRA.SOLV.lig_0>
-20.3028

>  <SCORE.INTRA.VDW>
0

>  <SCORE.INTRA.VDW.0>
0

>  <SCORE.INTRA.norm>
0

>  <SCORE.RESTR>
0

>  <SCORE.RESTR.CAVITY>
0

>  <SCORE.RESTR.norm>
0

>  <SCORE.SYSTEM>
-21.3069

>  <SCORE.SYSTEM.CONST>
0

>  <SCORE.SYSTEM.DIHEDRAL>
4.70062

>  <SCORE.SYSTEM.POLAR>
-3.0545

>  <SCORE.SYSTEM.SOLV>
-0.00444394

>  <SCORE.SYSTEM.VDW>
-5.58831

>  <SCORE.SYSTEM.norm>
-1.93699

>  <SCORE.heavy>
11

>  <SCORE.norm>
-4.57185

$$$$
xanthine
 OpenBabel12072022113D
libRbt.so/2013.1/901 2013/11/27
 14 15  0  0  0  0  0  0  0  0999 V2000
  -30.8304   18.1767  -13.0632 C   0  0  0  0  0  0  0  0  0  0  0  0
  -29.6155   17.6221  -13.3871 N   0  0  0  0  0  0  0  0  0  0  0  0
  -28.8899   17.3285  -12.7454 H   0  0  0  0  0  0  0  0  0  0  0  0
  -29.5773   17.5437  -14.7471 C   0  0  0  0  0  0  0  0  0  0  0  0
  -30.7686   18.0543  -15.1655 C   0  0  0  0  0  0  0  0  0  0  0  0
  -31.5519   18.4490  -14.1349 N   0  0  0  0  0  0  0  0  0  0  0  0
  -31.0677   18.1275  -16.4906 N   0  0  0  0  0  0  0  0  0  0  0  0
  -31.9572   18.5101  -16.7754 H   0  0  0  0  0  0  0  0  0  0  0  0
  -30.1695   17.6859  -17.4299 C   0  0  0  0  0  0  0  0  0  0  0  0
  -30.4086   17.7379  -18.6336 O   0  0  0  0  0  0  0  0  0  0  0  0
  -28.9725   17.1749  -16.9635 N   0  0  0  0  0  0  0  0  0  0  0  0
  -28.3197   16.8534  -17.6606 H   0  0  0  0  0  0  0  0  0  0  0  0
  -28.5856   17.0626  -15.6425 C   0  0  0  0  0  0  0  0  0  0  0  0
  -27.5058   16.5981  -15.2990 O   0  0  0  0  0  0  0  0  0  0  0  0
  1  2  1  0  0  0  0
  1  6  2  0  0  0  0
  2  3  1  0  0  0  0
  2  4  1  0  0  0  0
  4  5  2  0  0  0  0
  4 13  1  0  0  0  0
  5  6  1  0  0  0  0
  5  7  1  0  0  0  0
  7  8  1  0  0  0  0
  7  9  1  0  0  0  0
  9 10  2  0  0  0  0
  9 11  1  0  0  0  0
 11 12  1  0  0  0  0
 11 13  1  0  0  0  0
 13 14  2  0  0  0  0
M  END
>  <CHROM.0>
-60.94456315,-63.52440785,-64.31256192,-43.56215581,-59.67270485,-64.80772035
-67.57605031,-58.04053542,-169.06889470

>  <CHROM.1>
-29.88639340,17.64318276,-15.58792565,1.69963722,-0.41787591,1.52571012

>  <Name>
xanthine

>  <RI>
0

>  <Rbt.Current_Directory>
/home/fstefaniak/projects/zuza/docking/adenine/4TZX

>  <Rbt.Executable>
rbdock ($Id: //depot/dev/client3/rdock/2013.1/src/exe/rbdock.cxx#4 $)

>  <Rbt.Library>
libRbt.so (2013.1, Build901 2013/11/27)

>  <Rbt.Parameter_File>
/home/fstefaniak/progs/rDock//data/scripts/dock_solv.prm

>  <Rbt.Receptor>
4tzx.prm

>  <SCORE>
-50.2592

>  <SCORE.INTER>
-29.0601

>  <SCORE.INTER.CONST>
1

>  <SCORE.INTER.POLAR>
-3.54241

>  <SCORE.INTER.ROT>
0

>  <SCORE.INTER.SOLV>
12.7174

>  <SCORE.INTER.VDW>
-15.4045

>  <SCORE.INTER.norm>
-2.64183

>  <SCORE.INTRA>
0

>  <SCORE.INTRA.DIHEDRAL>
0

>  <SCORE.INTRA.DIHEDRAL.0>
0

>  <SCORE.INTRA.POLAR>
0

>  <SCORE.INTRA.POLAR.0>
0

>  <SCORE.INTRA.REPUL>
0

>  <SCORE.INTRA.REPUL.0>
0

>  <SCORE.INTRA.SOLV>
0

>  <SCORE.INTRA.SOLV.lig_0>
-20.3028

>  <SCORE.INTRA.VDW>
0

>  <SCORE.INTRA.VDW.0>
0

>  <SCORE.INTRA.norm>
0

>  <SCORE.RESTR>
0

>  <SCORE.RESTR.CAVITY>
0

>  <SCORE.RESTR.norm>
0

>  <SCORE.SYSTEM>
-21.1991

>  <SCORE.SYSTEM.CONST>
0

>  <SCORE.SYSTEM.DIHEDRAL>
4.39889

>  <SCORE.SYSTEM.POLAR>
-3.04041

>  <SCORE.SYSTEM.SOLV>
0.175929

>  <SCORE.SYSTEM.VDW>
-5.52299

>  <SCORE.SYSTEM.norm>
-1.92719

>  <SCORE.heavy>
11

>  <SCORE.norm>
-4.56902

$$$$
